
**** 05/14/22 23:53:09 ******* PSpice 17.4.0 (Nov 2018) ******* ID# 0 ********

 ** Profile: "SCHEMATIC1-sim_tranzitoriu"  [ c:\cadence\lascuanamaria_orcad\proiect_cad-PSpiceFiles\SCHEMATIC1\sim_tranzitoriu.sim ] 


 ****     CIRCUIT DESCRIPTION


******************************************************************************




** Creating circuit file "sim_tranzitoriu.cir" 
** WARNING: THIS AUTOMATICALLY GENERATED FILE MAY BE OVERWRITTEN BY SUBSEQUENT SIMULATIONS

*Libraries: 
* Profile Libraries :
* Local Libraries :
.LIB "../../../proiect_cad-pspicefiles/verde.lib" 
.LIB "../../../proiect_cad-pspicefiles/rosu.lib" 
.LIB "../../../proiect_cad-pspicefiles/portocaliu.lib" 
.LIB "../../../proiect_cad-pspicefiles/galben.lib" 
.LIB "../../../proiect_cad-pspicefiles/albastru.lib" 
* From [PSPICE NETLIST] section of C:\Users\Ana\AppData\Roaming\SPB_Data\cdssetup\OrCAD_PSpice\17.4.0\PSpice.ini file:
.lib "C:\Cadence\LascuAnamaria_orCAD\proiect1-PSpiceFiles\blue.lib" 
.lib "nom.lib" 

*Analysis directives: 
.TRAN  0 200us 0 2u 
.STEP LIN PARAM senzor 25k 40k 1k 
.OPTIONS ADVCONV
.PROBE64 V(alias(*)) I(alias(*)) W(alias(*)) D(alias(*)) NOISE(alias(*)) 
.INC "..\SCHEMATIC1.net" 



**** INCLUDING SCHEMATIC1.net ****
* source PROIECT_CAD
.EXTERNAL OUTPUT out
.EXTERNAL OUTPUT out1
.EXTERNAL OUTPUT ref
R_R1         N00083 +VCC  100k TC=0,0 
R_R3         0 N00083  {senzor} TC=0,0 
R_R2         0 N00083  100k TC=0,0 
V_V1         +VCC 0 +12V
V_V2         -VCC 0 -12V
R_R6         OUT N11463  1k TC=0,0 
R_R4         REF N11289  1k TC=0,0 
X_U4         N11463 N11289 +VCC -VCC OUT1 LM741
R_R5         N11289 OUT1  11.5k TC=0,0 
R_R7         0 N11463  11.5k TC=0,0 
R_Ra         N11846 +VCC  5.6k TC=0,0 
R_Rb         0 N11846  1k TC=0,0 
X_U7         N00083 OUT +VCC -VCC OUT LM741
X_U8         N11846 REF +VCC -VCC REF LM741
X_U9         OUT1 N13042 +VCC 0 N13228 LM741
R_R9         0 N13042  1.2k TC=0,0 
R_R8         N13042 +VCC  4.7k TC=0,0 
R_R_blue         N13228 N13284  400 TC=0,0 
D_D1          N13284 0 albastru 
R_R10         N13754 +VCC  37.4k TC=0,0 
R_R11         0 N13754  10k TC=0,0 
X_U10         OUT1 N13754 +VCC 0 N13710 LM741
D_D2          N13714 0 verde 
R_R_green         N13710 N13714  400 TC=0,0 
X_U11         OUT1 N14125 +VCC 0 N14081 LM741
R_R_red         N14081 N14085  500 TC=0,0 
R_R13         0 N14125  10k TC=0,0 
D_D3          N14085 0 rosu 
R_R12         N14125 +VCC  10.5k TC=0,0 
D_D4          N14462 0 galben 
X_U12         OUT1 N14502 +VCC 0 N14458 LM741
R_R_yellow         N14458 N14462  480 TC=0,0 
R_R15         0 N14502  3.9k TC=0,0 
R_R14         N14502 +VCC  2k TC=0,0 
R_R_orange         N14841 N14845  300 TC=0,0 
D_D5          N14845 0 portocaliu 
R_R17         0 N14885  42.2k TC=0,0 
X_U13         OUT1 N14885 +VCC 0 N14841 LM741
R_R16         N14885 +VCC  10.5k TC=0,0 
.PARAM  senzor=25k

**** RESUMING sim_tranzitoriu.cir ****
.END

**** 05/14/22 23:53:09 ******* PSpice 17.4.0 (Nov 2018) ******* ID# 0 ********

 ** Profile: "SCHEMATIC1-sim_tranzitoriu"  [ c:\cadence\lascuanamaria_orcad\proiect_cad-PSpiceFiles\SCHEMATIC1\sim_tranzitoriu.sim ] 


 ****     Diode MODEL PARAMETERS


******************************************************************************




               verde           rosu            portocaliu      galben          
          IS    7.795400E-15   10.000000E-21   10.010000E-21   10.000000E-21 
           N    3.6796          1.547           4.995           1.738        
          RS    8.9643          1.000000E-06   99.9             4.8824       


               albastru        X_U4.x_lm741.dx X_U4.x_lm741.dy X_U7.x_lm741.dx 
          IS  463.220000E-15  800.000000E-18  800.000000E-18  800.000000E-18 
           N    5                                                            
          RS   10.833           1               1.000000E-03    1            
         CJO                                   10.000000E-12                 


               X_U7.x_lm741.dy X_U8.x_lm741.dx X_U8.x_lm741.dy X_U9.x_lm741.dx 
          IS  800.000000E-18  800.000000E-18  800.000000E-18  800.000000E-18 
          RS    1.000000E-03    1               1.000000E-03    1            
         CJO   10.000000E-12                   10.000000E-12                 


               X_U9.x_lm741.dy X_U10.x_lm741.dx 
          IS  800.000000E-18  800.000000E-18 
          RS    1.000000E-03    1            
         CJO   10.000000E-12                 


               X_U10.x_lm741.dy 
          IS  800.000000E-18 
          RS    1.000000E-03 
         CJO   10.000000E-12 


               X_U11.x_lm741.dx 
          IS  800.000000E-18 
          RS    1            


               X_U11.x_lm741.dy 
          IS  800.000000E-18 
          RS    1.000000E-03 
         CJO   10.000000E-12 


               X_U12.x_lm741.dx 
          IS  800.000000E-18 
          RS    1            


               X_U12.x_lm741.dy 
          IS  800.000000E-18 
          RS    1.000000E-03 
         CJO   10.000000E-12 


               X_U13.x_lm741.dx 
          IS  800.000000E-18 
          RS    1            


               X_U13.x_lm741.dy 
          IS  800.000000E-18 
          RS    1.000000E-03 
         CJO   10.000000E-12 


**** 05/14/22 23:53:09 ******* PSpice 17.4.0 (Nov 2018) ******* ID# 0 ********

 ** Profile: "SCHEMATIC1-sim_tranzitoriu"  [ c:\cadence\lascuanamaria_orcad\proiect_cad-PSpiceFiles\SCHEMATIC1\sim_tranzitoriu.sim ] 


 ****     BJT MODEL PARAMETERS


******************************************************************************




               X_U4.x_lm741.qx X_U7.x_lm741.qx X_U8.x_lm741.qx X_U9.x_lm741.qx 
               NPN             NPN             NPN             NPN             
       LEVEL    1               1               1               1            
          IS  800.000000E-18  800.000000E-18  800.000000E-18  800.000000E-18 
          BF   93.75           93.75           93.75           93.75         
          NF    1               1               1               1            
          BR    1               1               1               1            
          NR    1               1               1               1            
         ISS    0               0               0               0            
          RE    0               0               0               0            
          RC    0               0               0               0            
         CJE    0               0               0               0            
         VJE     .75             .75             .75             .75         
         CJC    0               0               0               0            
         VJC     .75             .75             .75             .75         
         MJC     .33             .33             .33             .33         
        XCJC    1               1               1               1            
         CJS    0               0               0               0            
         VJS     .75             .75             .75             .75         
          KF    0               0               0               0            
          AF    1               1               1               1            
          CN    2.42            2.42            2.42            2.42         
           D     .87             .87             .87             .87         


               X_U10.x_lm741.qx 
               NPN             
       LEVEL    1            
          IS  800.000000E-18 
          BF   93.75         
          NF    1            
          BR    1            
          NR    1            
         ISS    0            
          RE    0            
          RC    0            
         CJE    0            
         VJE     .75         
         CJC    0            
         VJC     .75         
         MJC     .33         
        XCJC    1            
         CJS    0            
         VJS     .75         
          KF    0            
          AF    1            
          CN    2.42         
           D     .87         


               X_U11.x_lm741.qx 
               NPN             
       LEVEL    1            
          IS  800.000000E-18 
          BF   93.75         
          NF    1            
          BR    1            
          NR    1            
         ISS    0            
          RE    0            
          RC    0            
         CJE    0            
         VJE     .75         
         CJC    0            
         VJC     .75         
         MJC     .33         
        XCJC    1            
         CJS    0            
         VJS     .75         
          KF    0            
          AF    1            
          CN    2.42         
           D     .87         


               X_U12.x_lm741.qx 
               NPN             
       LEVEL    1            
          IS  800.000000E-18 
          BF   93.75         
          NF    1            
          BR    1            
          NR    1            
         ISS    0            
          RE    0            
          RC    0            
         CJE    0            
         VJE     .75         
         CJC    0            
         VJC     .75         
         MJC     .33         
        XCJC    1            
         CJS    0            
         VJS     .75         
          KF    0            
          AF    1            
          CN    2.42         
           D     .87         


               X_U13.x_lm741.qx 
               NPN             
       LEVEL    1            
          IS  800.000000E-18 
          BF   93.75         
          NF    1            
          BR    1            
          NR    1            
         ISS    0            
          RE    0            
          RC    0            
         CJE    0            
         VJE     .75         
         CJC    0            
         VJC     .75         
         MJC     .33         
        XCJC    1            
         CJS    0            
         VJS     .75         
          KF    0            
          AF    1            
          CN    2.42         
           D     .87         


**** 05/14/22 23:53:09 ******* PSpice 17.4.0 (Nov 2018) ******* ID# 0 ********

 ** Profile: "SCHEMATIC1-sim_tranzitoriu"  [ c:\cadence\lascuanamaria_orcad\proiect_cad-PSpiceFiles\SCHEMATIC1\sim_tranzitoriu.sim ] 


 ****     INITIAL TRANSIENT SOLUTION       TEMPERATURE =   27.000 DEG C

 ****     CURRENT STEP                     PARAM SENZOR =   25.0000E+03


******************************************************************************



 NODE   VOLTAGE     NODE   VOLTAGE     NODE   VOLTAGE     NODE   VOLTAGE


(  OUT)    1.9986  (  REF)    1.8181  ( +VCC)   12.0000  ( -VCC)  -12.0000      

( OUT1)    2.0756  (N00083)    1.9987 (N11289)    1.8386 (N11463)    1.8386     

(N11846)    1.8181 (N13042)    2.4405 (N13228)     .1837 (N13284)     .1837     

(N13710)     .1837 (N13714)     .1837 (N13754)    2.5304 (N14081)     .1837     

(N14085)     .1837 (N14125)    5.8528 (N14458)     .1837 (N14462)     .1837     

(N14502)    7.9320 (N14841)     .1837 (N14845)     .1837 (N14885)    9.6077     

(X_U4.x_lm741.6)-195.9E-06            (X_U4.x_lm741.7)    2.0766                

(X_U4.x_lm741.8)    2.0766            (X_U4.x_lm741.9)    0.0000                

(X_U7.x_lm741.6)-190.7E-06            (X_U7.x_lm741.7)    2.0066                

(X_U7.x_lm741.8)    2.0066            (X_U7.x_lm741.9)    0.0000                

(X_U8.x_lm741.6)-171.1E-06            (X_U8.x_lm741.7)    1.8170                

(X_U8.x_lm741.8)    1.8170            (X_U8.x_lm741.9)    0.0000                

(X_U9.x_lm741.6)    1.4660            (X_U9.x_lm741.7)   -1.8465                

(X_U9.x_lm741.8)   -1.8465            (X_U9.x_lm741.9)    0.0000                

(X_U10.x_lm741.6)    1.4667           (X_U10.x_lm741.7)   -1.8465               

(X_U10.x_lm741.8)   -1.8465           (X_U10.x_lm741.9)    0.0000               

(X_U11.x_lm741.6)    1.4936           (X_U11.x_lm741.7)   -1.8465               

(X_U11.x_lm741.8)   -1.8465           (X_U11.x_lm741.9)    0.0000               

(X_U12.x_lm741.6)    1.5105           (X_U12.x_lm741.7)   -1.8466               

(X_U12.x_lm741.8)   -1.8466           (X_U12.x_lm741.9)    0.0000               

(X_U13.x_lm741.6)    1.5240           (X_U13.x_lm741.7)   -1.8466               

(X_U13.x_lm741.8)   -1.8466           (X_U13.x_lm741.9)    0.0000               

(X_U4.x_lm741.10)    1.2306           (X_U4.x_lm741.11)   11.9600               

(X_U4.x_lm741.12)   11.9600           (X_U4.x_lm741.13)    1.2446               

(X_U4.x_lm741.14)    1.2446           (X_U4.x_lm741.53)   11.0000               

(X_U4.x_lm741.54)  -11.0000           (X_U4.x_lm741.90)     .0206               

(X_U4.x_lm741.91)   40.0000           (X_U4.x_lm741.92)  -40.0000               

(X_U4.x_lm741.99)    0.0000           (X_U7.x_lm741.10)    1.3906               

(X_U7.x_lm741.11)   11.9600           (X_U7.x_lm741.12)   11.9600               

(X_U7.x_lm741.13)    1.4046           (X_U7.x_lm741.14)    1.4046               

(X_U7.x_lm741.53)   11.0000           (X_U7.x_lm741.54)  -11.0000               

(X_U7.x_lm741.90)     .1600           (X_U7.x_lm741.91)   40.0000               

(X_U7.x_lm741.92)  -40.0000           (X_U7.x_lm741.99)    0.0000               

(X_U8.x_lm741.10)    1.2101           (X_U8.x_lm741.11)   11.9600               

(X_U8.x_lm741.12)   11.9600           (X_U8.x_lm741.13)    1.2241               

(X_U8.x_lm741.14)    1.2241           (X_U8.x_lm741.53)   11.0000               

(X_U8.x_lm741.54)  -11.0000           (X_U8.x_lm741.90)    -.0204               

(X_U8.x_lm741.91)   40.0000           (X_U8.x_lm741.92)  -40.0000               

(X_U8.x_lm741.99)    0.0000           (X_U9.x_lm741.10)    1.8020               

(X_U9.x_lm741.11)   11.9220           (X_U9.x_lm741.12)   12.0000               

(X_U9.x_lm741.13)    1.8293           (X_U9.x_lm741.14)    1.8020               

(X_U9.x_lm741.53)   11.0000           (X_U9.x_lm741.54)    1.0000               

(X_U9.x_lm741.90)  -40.6050           (X_U9.x_lm741.91)   40.0000               

(X_U9.x_lm741.92)  -40.0000           (X_U9.x_lm741.99)    6.0000               

(X_U10.x_lm741.10)    1.8919          (X_U10.x_lm741.11)   11.9220              

(X_U10.x_lm741.12)   12.0000          (X_U10.x_lm741.13)    1.9191              

(X_U10.x_lm741.14)    1.8919          (X_U10.x_lm741.53)   11.0000              

(X_U10.x_lm741.54)    1.0000          (X_U10.x_lm741.90)  -40.6050              

(X_U10.x_lm741.91)   40.0000          (X_U10.x_lm741.92)  -40.0000              

(X_U10.x_lm741.99)    6.0000          (X_U11.x_lm741.10)    5.2134              

(X_U11.x_lm741.11)   11.9210          (X_U11.x_lm741.12)   12.0000              

(X_U11.x_lm741.13)    5.2411          (X_U11.x_lm741.14)    5.2134              

(X_U11.x_lm741.53)   11.0000          (X_U11.x_lm741.54)    1.0000              

(X_U11.x_lm741.90)  -40.6060          (X_U11.x_lm741.91)   40.0000              

(X_U11.x_lm741.92)  -40.0000          (X_U11.x_lm741.99)    6.0000              

(X_U12.x_lm741.10)    7.2920          (X_U12.x_lm741.11)   11.9200              

(X_U12.x_lm741.12)   12.0000          (X_U12.x_lm741.13)    7.3200              

(X_U12.x_lm741.14)    7.2920          (X_U12.x_lm741.53)   11.0000              

(X_U12.x_lm741.54)    1.0000          (X_U12.x_lm741.90)  -40.6060              

(X_U12.x_lm741.91)   40.0000          (X_U12.x_lm741.92)  -40.0000              

(X_U12.x_lm741.99)    6.0000          (X_U13.x_lm741.10)    8.9673              

(X_U13.x_lm741.11)   11.9190          (X_U13.x_lm741.12)   12.0000              

(X_U13.x_lm741.13)    8.9956          (X_U13.x_lm741.14)    8.9673              

(X_U13.x_lm741.53)   11.0000          (X_U13.x_lm741.54)    1.0000              

(X_U13.x_lm741.90)  -40.6060          (X_U13.x_lm741.91)   40.0000              

(X_U13.x_lm741.92)  -40.0000          (X_U13.x_lm741.99)    6.0000          




    VOLTAGE SOURCE CURRENTS
    NAME         CURRENT

    V_V1        -1.444E-02
    V_V2         4.010E-03
    X_U4.x_lm741.vb  -1.959E-09
    X_U4.x_lm741.vc   8.925E-12
    X_U4.x_lm741.ve   1.458E-11
    X_U4.x_lm741.vlim   2.061E-05
    X_U4.x_lm741.vlp  -3.998E-11
    X_U4.x_lm741.vln  -4.002E-11
    X_U7.x_lm741.vb  -1.907E-09
    X_U7.x_lm741.vc   9.002E-12
    X_U7.x_lm741.ve   1.451E-11
    X_U7.x_lm741.vlim   1.600E-04
    X_U7.x_lm741.vlp  -3.984E-11
    X_U7.x_lm741.vln  -4.016E-11
    X_U8.x_lm741.vb  -1.711E-09
    X_U8.x_lm741.vc   9.183E-12
    X_U8.x_lm741.ve   1.432E-11
    X_U8.x_lm741.vlim  -2.044E-05
    X_U8.x_lm741.vlp  -4.002E-11
    X_U8.x_lm741.vln  -3.998E-11
    X_U9.x_lm741.vb   1.466E-05
    X_U9.x_lm741.vc   1.082E-11
    X_U9.x_lm741.ve  -4.060E-02
    X_U9.x_lm741.vlim  -4.060E-02
    X_U9.x_lm741.vlp  -8.061E-11
    X_U9.x_lm741.vln   1.148E-05
    X_U10.x_lm741.vb   1.467E-05
    X_U10.x_lm741.vc   1.082E-11
    X_U10.x_lm741.ve  -4.060E-02
    X_U10.x_lm741.vlim  -4.060E-02
    X_U10.x_lm741.vlp  -8.061E-11
    X_U10.x_lm741.vln   1.149E-05
    X_U11.x_lm741.vb   1.494E-05
    X_U11.x_lm741.vc   1.082E-11
    X_U11.x_lm741.ve  -4.061E-02
    X_U11.x_lm741.vlim  -4.061E-02
    X_U11.x_lm741.vlp  -8.061E-11
    X_U11.x_lm741.vln   1.177E-05
    X_U12.x_lm741.vb   1.510E-05
    X_U12.x_lm741.vc   1.082E-11
    X_U12.x_lm741.ve  -4.061E-02
    X_U12.x_lm741.vlim  -4.061E-02
    X_U12.x_lm741.vlp  -8.061E-11
    X_U12.x_lm741.vln   1.195E-05
    X_U13.x_lm741.vb   1.524E-05
    X_U13.x_lm741.vc   1.082E-11
    X_U13.x_lm741.ve  -4.061E-02
    X_U13.x_lm741.vlim  -4.061E-02
    X_U13.x_lm741.vlp  -8.061E-11
    X_U13.x_lm741.vln   1.210E-05

    TOTAL POWER DISSIPATION   4.22E-01  WATTS


**** 05/14/22 23:53:09 ******* PSpice 17.4.0 (Nov 2018) ******* ID# 0 ********

 ** Profile: "SCHEMATIC1-sim_tranzitoriu"  [ c:\cadence\lascuanamaria_orcad\proiect_cad-PSpiceFiles\SCHEMATIC1\sim_tranzitoriu.sim ] 


 ****     INITIAL TRANSIENT SOLUTION       TEMPERATURE =   27.000 DEG C

 ****     CURRENT STEP                     PARAM SENZOR =   26.0000E+03


******************************************************************************



 NODE   VOLTAGE     NODE   VOLTAGE     NODE   VOLTAGE     NODE   VOLTAGE


(  OUT)    2.0512  (  REF)    1.8181  ( +VCC)   12.0000  ( -VCC)  -12.0000      

( OUT1)    2.6803  (N00083)    2.0513 (N11289)    1.8870 (N11463)    1.8870     

(N11846)    1.8181 (N13042)    2.4407 (N13228)   11.7970 (N13284)    3.4006     

(N13710)   11.7960 (N13714)    2.9279 (N13754)    2.5316 (N14081)     .1837     

(N14085)     .1837 (N14125)    5.8528 (N14458)     .1837 (N14462)     .1837     

(N14502)    7.9320 (N14841)     .1837 (N14845)     .1837 (N14885)    9.6077     

(X_U4.x_lm741.6)-253.6E-06            (X_U4.x_lm741.7)    2.6838                

(X_U4.x_lm741.8)    2.6838            (X_U4.x_lm741.9)    0.0000                

(X_U7.x_lm741.6)-195.7E-06            (X_U7.x_lm741.7)    2.0594                

(X_U7.x_lm741.8)    2.0594            (X_U7.x_lm741.9)    0.0000                

(X_U8.x_lm741.6)-170.4E-06            (X_U8.x_lm741.7)    1.8146                

(X_U8.x_lm741.8)    1.8146            (X_U8.x_lm741.9)    0.0000                

(X_U9.x_lm741.6)   -1.4719            (X_U9.x_lm741.7)   13.8280                

(X_U9.x_lm741.8)   13.8280            (X_U9.x_lm741.9)    0.0000                

(X_U10.x_lm741.6)   -1.4465           (X_U10.x_lm741.7)   13.8260               

(X_U10.x_lm741.8)   13.8260           (X_U10.x_lm741.9)    0.0000               

(X_U11.x_lm741.6)    1.4936           (X_U11.x_lm741.7)   -1.8465               

(X_U11.x_lm741.8)   -1.8465           (X_U11.x_lm741.9)    0.0000               

(X_U12.x_lm741.6)    1.5105           (X_U12.x_lm741.7)   -1.8466               

(X_U12.x_lm741.8)   -1.8466           (X_U12.x_lm741.9)    0.0000               

(X_U13.x_lm741.6)    1.5240           (X_U13.x_lm741.7)   -1.8466               

(X_U13.x_lm741.8)   -1.8466           (X_U13.x_lm741.9)    0.0000               

(X_U4.x_lm741.10)    1.2790           (X_U4.x_lm741.11)   11.9600               

(X_U4.x_lm741.12)   11.9600           (X_U4.x_lm741.13)    1.2930               

(X_U4.x_lm741.14)    1.2930           (X_U4.x_lm741.53)   11.0000               

(X_U4.x_lm741.54)  -11.0000           (X_U4.x_lm741.90)     .0693               

(X_U4.x_lm741.91)   40.0000           (X_U4.x_lm741.92)  -40.0000               

(X_U4.x_lm741.99)    0.0000           (X_U7.x_lm741.10)    1.4431               

(X_U7.x_lm741.11)   11.9600           (X_U7.x_lm741.12)   11.9600               

(X_U7.x_lm741.13)    1.4572           (X_U7.x_lm741.14)    1.4572               

(X_U7.x_lm741.53)   11.0000           (X_U7.x_lm741.54)  -11.0000               

(X_U7.x_lm741.90)     .1643           (X_U7.x_lm741.91)   40.0000               

(X_U7.x_lm741.92)  -40.0000           (X_U7.x_lm741.99)    0.0000               

(X_U8.x_lm741.10)    1.2101           (X_U8.x_lm741.11)   11.9600               

(X_U8.x_lm741.12)   11.9600           (X_U8.x_lm741.13)    1.2241               

(X_U8.x_lm741.14)    1.2241           (X_U8.x_lm741.53)   11.0000               

(X_U8.x_lm741.54)  -11.0000           (X_U8.x_lm741.90)    -.0688               

(X_U8.x_lm741.91)   40.0000           (X_U8.x_lm741.92)  -40.0000               

(X_U8.x_lm741.99)    0.0000           (X_U9.x_lm741.10)    2.0418               

(X_U9.x_lm741.11)   12.0000           (X_U9.x_lm741.12)   11.9220               

(X_U9.x_lm741.13)    2.0418           (X_U9.x_lm741.14)    2.0690               

(X_U9.x_lm741.53)   11.0000           (X_U9.x_lm741.54)    1.0000               

(X_U9.x_lm741.90)   40.6090           (X_U9.x_lm741.91)   40.0000               

(X_U9.x_lm741.92)  -40.0000           (X_U9.x_lm741.99)    6.0000               

(X_U10.x_lm741.10)    2.0422          (X_U10.x_lm741.11)   11.9990              

(X_U10.x_lm741.12)   11.9230          (X_U10.x_lm741.13)    2.0425              

(X_U10.x_lm741.14)    2.0693          (X_U10.x_lm741.53)   11.0000              

(X_U10.x_lm741.54)    1.0000          (X_U10.x_lm741.90)   40.6090              

(X_U10.x_lm741.91)   40.0000          (X_U10.x_lm741.92)  -40.0000              

(X_U10.x_lm741.99)    6.0000          (X_U11.x_lm741.10)    5.2134              

(X_U11.x_lm741.11)   11.9210          (X_U11.x_lm741.12)   12.0000              

(X_U11.x_lm741.13)    5.2411          (X_U11.x_lm741.14)    5.2134              

(X_U11.x_lm741.53)   11.0000          (X_U11.x_lm741.54)    1.0000              

(X_U11.x_lm741.90)  -40.6060          (X_U11.x_lm741.91)   40.0000              

(X_U11.x_lm741.92)  -40.0000          (X_U11.x_lm741.99)    6.0000              

(X_U12.x_lm741.10)    7.2920          (X_U12.x_lm741.11)   11.9200              

(X_U12.x_lm741.12)   12.0000          (X_U12.x_lm741.13)    7.3200              

(X_U12.x_lm741.14)    7.2920          (X_U12.x_lm741.53)   11.0000              

(X_U12.x_lm741.54)    1.0000          (X_U12.x_lm741.90)  -40.6060              

(X_U12.x_lm741.91)   40.0000          (X_U12.x_lm741.92)  -40.0000              

(X_U12.x_lm741.99)    6.0000          (X_U13.x_lm741.10)    8.9673              

(X_U13.x_lm741.11)   11.9190          (X_U13.x_lm741.12)   12.0000              

(X_U13.x_lm741.13)    8.9956          (X_U13.x_lm741.14)    8.9673              

(X_U13.x_lm741.53)   11.0000          (X_U13.x_lm741.54)    1.0000              

(X_U13.x_lm741.90)  -40.6060          (X_U13.x_lm741.91)   40.0000              

(X_U13.x_lm741.92)  -40.0000          (X_U13.x_lm741.99)    6.0000          




    VOLTAGE SOURCE CURRENTS
    NAME         CURRENT

    V_V1         2.362E-02
    V_V2         4.010E-03
    X_U4.x_lm741.vb  -2.536E-09
    X_U4.x_lm741.vc   8.320E-12
    X_U4.x_lm741.ve   1.519E-11
    X_U4.x_lm741.vlim   6.930E-05
    X_U4.x_lm741.vlp  -3.993E-11
    X_U4.x_lm741.vln  -4.007E-11
    X_U7.x_lm741.vb  -1.957E-09
    X_U7.x_lm741.vc   8.950E-12
    X_U7.x_lm741.ve   1.456E-11
    X_U7.x_lm741.vlim   1.643E-04
    X_U7.x_lm741.vlp  -3.984E-11
    X_U7.x_lm741.vln  -4.017E-11
    X_U8.x_lm741.vb  -1.704E-09
    X_U8.x_lm741.vc   9.183E-12
    X_U8.x_lm741.ve   1.432E-11
    X_U8.x_lm741.vlim  -6.883E-05
    X_U8.x_lm741.vlp  -4.007E-11
    X_U8.x_lm741.vln  -3.993E-11
    X_U9.x_lm741.vb  -1.472E-05
    X_U9.x_lm741.vc  -1.962E-02
    X_U9.x_lm741.ve   1.066E-11
    X_U9.x_lm741.vlim   4.061E-02
    X_U9.x_lm741.vlp   1.364E-05
    X_U9.x_lm741.vln  -8.061E-11
    X_U10.x_lm741.vb  -1.446E-05
    X_U10.x_lm741.vc  -1.844E-02
    X_U10.x_lm741.ve   1.066E-11
    X_U10.x_lm741.vlim   4.061E-02
    X_U10.x_lm741.vlp   1.349E-05
    X_U10.x_lm741.vln  -8.061E-11
    X_U11.x_lm741.vb   1.494E-05
    X_U11.x_lm741.vc   1.082E-11
    X_U11.x_lm741.ve  -4.061E-02
    X_U11.x_lm741.vlim  -4.061E-02
    X_U11.x_lm741.vlp  -8.061E-11
    X_U11.x_lm741.vln   1.177E-05
    X_U12.x_lm741.vb   1.510E-05
    X_U12.x_lm741.vc   1.082E-11
    X_U12.x_lm741.ve  -4.061E-02
    X_U12.x_lm741.vlim  -4.061E-02
    X_U12.x_lm741.vlp  -8.061E-11
    X_U12.x_lm741.vln   1.195E-05
    X_U13.x_lm741.vb   1.524E-05
    X_U13.x_lm741.vc   1.082E-11
    X_U13.x_lm741.ve  -4.061E-02
    X_U13.x_lm741.vlim  -4.061E-02
    X_U13.x_lm741.vlp  -8.061E-11
    X_U13.x_lm741.vln   1.210E-05

    TOTAL POWER DISSIPATION  -7.79E-02  WATTS


**** 05/14/22 23:53:09 ******* PSpice 17.4.0 (Nov 2018) ******* ID# 0 ********

 ** Profile: "SCHEMATIC1-sim_tranzitoriu"  [ c:\cadence\lascuanamaria_orcad\proiect_cad-PSpiceFiles\SCHEMATIC1\sim_tranzitoriu.sim ] 


 ****     INITIAL TRANSIENT SOLUTION       TEMPERATURE =   27.000 DEG C

 ****     CURRENT STEP                     PARAM SENZOR =   27.0000E+03


******************************************************************************



 NODE   VOLTAGE     NODE   VOLTAGE     NODE   VOLTAGE     NODE   VOLTAGE


(  OUT)    2.1024  (  REF)    1.8181  ( +VCC)   12.0000  ( -VCC)  -12.0000      

( OUT1)    3.2694  (N00083)    2.1025 (N11289)    1.9341 (N11463)    1.9342     

(N11846)    1.8181 (N13042)    2.4407 (N13228)   11.7970 (N13284)    3.4006     

(N13710)   11.7960 (N13714)    2.9279 (N13754)    2.5316 (N14081)     .1837     

(N14085)     .1837 (N14125)    5.8528 (N14458)     .1837 (N14462)     .1837     

(N14502)    7.9320 (N14841)     .1837 (N14845)     .1837 (N14885)    9.6077     

(X_U4.x_lm741.6)-309.8E-06            (X_U4.x_lm741.7)    3.2752                

(X_U4.x_lm741.8)    3.2752            (X_U4.x_lm741.9)    0.0000                

(X_U7.x_lm741.6)-200.6E-06            (X_U7.x_lm741.7)    2.1108                

(X_U7.x_lm741.8)    2.1108            (X_U7.x_lm741.9)    0.0000                

(X_U8.x_lm741.6)-169.7E-06            (X_U8.x_lm741.7)    1.8123                

(X_U8.x_lm741.8)    1.8123            (X_U8.x_lm741.9)    0.0000                

(X_U9.x_lm741.6)   -1.4767            (X_U9.x_lm741.7)   13.8280                

(X_U9.x_lm741.8)   13.8280            (X_U9.x_lm741.9)    0.0000                

(X_U10.x_lm741.6)   -1.4767           (X_U10.x_lm741.7)   13.8260               

(X_U10.x_lm741.8)   13.8260           (X_U10.x_lm741.9)    0.0000               

(X_U11.x_lm741.6)    1.4936           (X_U11.x_lm741.7)   -1.8465               

(X_U11.x_lm741.8)   -1.8465           (X_U11.x_lm741.9)    0.0000               

(X_U12.x_lm741.6)    1.5105           (X_U12.x_lm741.7)   -1.8466               

(X_U12.x_lm741.8)   -1.8466           (X_U12.x_lm741.9)    0.0000               

(X_U13.x_lm741.6)    1.5240           (X_U13.x_lm741.7)   -1.8466               

(X_U13.x_lm741.8)   -1.8466           (X_U13.x_lm741.9)    0.0000               

(X_U4.x_lm741.10)    1.3261           (X_U4.x_lm741.11)   11.9600               

(X_U4.x_lm741.12)   11.9600           (X_U4.x_lm741.13)    1.3401               

(X_U4.x_lm741.14)    1.3401           (X_U4.x_lm741.53)   11.0000               

(X_U4.x_lm741.54)  -11.0000           (X_U4.x_lm741.90)     .1164               

(X_U4.x_lm741.91)   40.0000           (X_U4.x_lm741.92)  -40.0000               

(X_U4.x_lm741.99)    0.0000           (X_U7.x_lm741.10)    1.4944               

(X_U7.x_lm741.11)   11.9600           (X_U7.x_lm741.12)   11.9600               

(X_U7.x_lm741.13)    1.5084           (X_U7.x_lm741.14)    1.5084               

(X_U7.x_lm741.53)   11.0000           (X_U7.x_lm741.54)  -11.0000               

(X_U7.x_lm741.90)     .1683           (X_U7.x_lm741.91)   40.0000               

(X_U7.x_lm741.92)  -40.0000           (X_U7.x_lm741.99)    0.0000               

(X_U8.x_lm741.10)    1.2101           (X_U8.x_lm741.11)   11.9600               

(X_U8.x_lm741.12)   11.9600           (X_U8.x_lm741.13)    1.2241               

(X_U8.x_lm741.14)    1.2241           (X_U8.x_lm741.53)   11.0000               

(X_U8.x_lm741.54)  -11.0000           (X_U8.x_lm741.90)    -.1160               

(X_U8.x_lm741.91)   40.0000           (X_U8.x_lm741.92)  -40.0000               

(X_U8.x_lm741.99)    0.0000           (X_U9.x_lm741.10)    2.6307               

(X_U9.x_lm741.11)   12.0000           (X_U9.x_lm741.12)   11.9220               

(X_U9.x_lm741.13)    2.6307           (X_U9.x_lm741.14)    2.6580               

(X_U9.x_lm741.53)   11.0000           (X_U9.x_lm741.54)    1.0000               

(X_U9.x_lm741.90)   40.6090           (X_U9.x_lm741.91)   40.0000               

(X_U9.x_lm741.92)  -40.0000           (X_U9.x_lm741.99)    6.0000               

(X_U10.x_lm741.10)    2.6307          (X_U10.x_lm741.11)   12.0000              

(X_U10.x_lm741.12)   11.9220          (X_U10.x_lm741.13)    2.6307              

(X_U10.x_lm741.14)    2.6580          (X_U10.x_lm741.53)   11.0000              

(X_U10.x_lm741.54)    1.0000          (X_U10.x_lm741.90)   40.6100              

(X_U10.x_lm741.91)   40.0000          (X_U10.x_lm741.92)  -40.0000              

(X_U10.x_lm741.99)    6.0000          (X_U11.x_lm741.10)    5.2134              

(X_U11.x_lm741.11)   11.9210          (X_U11.x_lm741.12)   12.0000              

(X_U11.x_lm741.13)    5.2411          (X_U11.x_lm741.14)    5.2134              

(X_U11.x_lm741.53)   11.0000          (X_U11.x_lm741.54)    1.0000              

(X_U11.x_lm741.90)  -40.6060          (X_U11.x_lm741.91)   40.0000              

(X_U11.x_lm741.92)  -40.0000          (X_U11.x_lm741.99)    6.0000              

(X_U12.x_lm741.10)    7.2920          (X_U12.x_lm741.11)   11.9200              

(X_U12.x_lm741.12)   12.0000          (X_U12.x_lm741.13)    7.3200              

(X_U12.x_lm741.14)    7.2920          (X_U12.x_lm741.53)   11.0000              

(X_U12.x_lm741.54)    1.0000          (X_U12.x_lm741.90)  -40.6060              

(X_U12.x_lm741.91)   40.0000          (X_U12.x_lm741.92)  -40.0000              

(X_U12.x_lm741.99)    6.0000          (X_U13.x_lm741.10)    8.9673              

(X_U13.x_lm741.11)   11.9190          (X_U13.x_lm741.12)   12.0000              

(X_U13.x_lm741.13)    8.9956          (X_U13.x_lm741.14)    8.9673              

(X_U13.x_lm741.53)   11.0000          (X_U13.x_lm741.54)    1.0000              

(X_U13.x_lm741.90)  -40.6060          (X_U13.x_lm741.91)   40.0000              

(X_U13.x_lm741.92)  -40.0000          (X_U13.x_lm741.99)    6.0000          




    VOLTAGE SOURCE CURRENTS
    NAME         CURRENT

    V_V1         2.362E-02
    V_V2         4.010E-03
    X_U4.x_lm741.vb  -3.098E-09
    X_U4.x_lm741.vc   7.731E-12
    X_U4.x_lm741.ve   1.578E-11
    X_U4.x_lm741.vlim   1.164E-04
    X_U4.x_lm741.vlp  -3.988E-11
    X_U4.x_lm741.vln  -4.012E-11
    X_U7.x_lm741.vb  -2.006E-09
    X_U7.x_lm741.vc   8.898E-12
    X_U7.x_lm741.ve   1.461E-11
    X_U7.x_lm741.vlim   1.683E-04
    X_U7.x_lm741.vlp  -3.983E-11
    X_U7.x_lm741.vln  -4.017E-11
    X_U8.x_lm741.vb  -1.697E-09
    X_U8.x_lm741.vc   9.183E-12
    X_U8.x_lm741.ve   1.432E-11
    X_U8.x_lm741.vlim  -1.160E-04
    X_U8.x_lm741.vlp  -4.012E-11
    X_U8.x_lm741.vln  -3.989E-11
    X_U9.x_lm741.vb  -1.477E-05
    X_U9.x_lm741.vc  -1.962E-02
    X_U9.x_lm741.ve   1.066E-11
    X_U9.x_lm741.vlim   4.061E-02
    X_U9.x_lm741.vlp   1.369E-05
    X_U9.x_lm741.vln  -8.061E-11
    X_U10.x_lm741.vb  -1.477E-05
    X_U10.x_lm741.vc  -1.844E-02
    X_U10.x_lm741.ve   1.066E-11
    X_U10.x_lm741.vlim   4.061E-02
    X_U10.x_lm741.vlp   1.381E-05
    X_U10.x_lm741.vln  -8.061E-11
    X_U11.x_lm741.vb   1.494E-05
    X_U11.x_lm741.vc   1.082E-11
    X_U11.x_lm741.ve  -4.061E-02
    X_U11.x_lm741.vlim  -4.061E-02
    X_U11.x_lm741.vlp  -8.061E-11
    X_U11.x_lm741.vln   1.177E-05
    X_U12.x_lm741.vb   1.510E-05
    X_U12.x_lm741.vc   1.082E-11
    X_U12.x_lm741.ve  -4.061E-02
    X_U12.x_lm741.vlim  -4.061E-02
    X_U12.x_lm741.vlp  -8.061E-11
    X_U12.x_lm741.vln   1.195E-05
    X_U13.x_lm741.vb   1.524E-05
    X_U13.x_lm741.vc   1.082E-11
    X_U13.x_lm741.ve  -4.061E-02
    X_U13.x_lm741.vlim  -4.061E-02
    X_U13.x_lm741.vlp  -8.061E-11
    X_U13.x_lm741.vln   1.210E-05

    TOTAL POWER DISSIPATION  -7.79E-02  WATTS


**** 05/14/22 23:53:09 ******* PSpice 17.4.0 (Nov 2018) ******* ID# 0 ********

 ** Profile: "SCHEMATIC1-sim_tranzitoriu"  [ c:\cadence\lascuanamaria_orcad\proiect_cad-PSpiceFiles\SCHEMATIC1\sim_tranzitoriu.sim ] 


 ****     INITIAL TRANSIENT SOLUTION       TEMPERATURE =   27.000 DEG C

 ****     CURRENT STEP                     PARAM SENZOR =   28.0000E+03


******************************************************************************



 NODE   VOLTAGE     NODE   VOLTAGE     NODE   VOLTAGE     NODE   VOLTAGE


(  OUT)    2.1523  (  REF)    1.8181  ( +VCC)   12.0000  ( -VCC)  -12.0000      

( OUT1)    3.8434  (N00083)    2.1524 (N11289)    1.9800 (N11463)    1.9801     

(N11846)    1.8181 (N13042)    2.4407 (N13228)   11.7970 (N13284)    3.4006     

(N13710)   11.7960 (N13714)    2.9279 (N13754)    2.5316 (N14081)     .1837     

(N14085)     .1837 (N14125)    5.8528 (N14458)     .1837 (N14462)     .1837     

(N14502)    7.9320 (N14841)     .1837 (N14845)     .1837 (N14885)    9.6077     

(X_U4.x_lm741.6)-364.6E-06            (X_U4.x_lm741.7)    3.8515                

(X_U4.x_lm741.8)    3.8515            (X_U4.x_lm741.9)    0.0000                

(X_U7.x_lm741.6)-205.3E-06            (X_U7.x_lm741.7)    2.1610                

(X_U7.x_lm741.8)    2.1610            (X_U7.x_lm741.9)    0.0000                

(X_U8.x_lm741.6)-169.0E-06            (X_U8.x_lm741.7)    1.8100                

(X_U8.x_lm741.8)    1.8100            (X_U8.x_lm741.9)    0.0000                

(X_U9.x_lm741.6)   -1.4807            (X_U9.x_lm741.7)   13.8280                

(X_U9.x_lm741.8)   13.8280            (X_U9.x_lm741.9)    0.0000                

(X_U10.x_lm741.6)   -1.4807           (X_U10.x_lm741.7)   13.8260               

(X_U10.x_lm741.8)   13.8260           (X_U10.x_lm741.9)    0.0000               

(X_U11.x_lm741.6)    1.4936           (X_U11.x_lm741.7)   -1.8465               

(X_U11.x_lm741.8)   -1.8465           (X_U11.x_lm741.9)    0.0000               

(X_U12.x_lm741.6)    1.5105           (X_U12.x_lm741.7)   -1.8466               

(X_U12.x_lm741.8)   -1.8466           (X_U12.x_lm741.9)    0.0000               

(X_U13.x_lm741.6)    1.5240           (X_U13.x_lm741.7)   -1.8466               

(X_U13.x_lm741.8)   -1.8466           (X_U13.x_lm741.9)    0.0000               

(X_U4.x_lm741.10)    1.3720           (X_U4.x_lm741.11)   11.9600               

(X_U4.x_lm741.12)   11.9600           (X_U4.x_lm741.13)    1.3860               

(X_U4.x_lm741.14)    1.3860           (X_U4.x_lm741.53)   11.0000               

(X_U4.x_lm741.54)  -11.0000           (X_U4.x_lm741.90)     .1623               

(X_U4.x_lm741.91)   40.0000           (X_U4.x_lm741.92)  -40.0000               

(X_U4.x_lm741.99)    0.0000           (X_U7.x_lm741.10)    1.5443               

(X_U7.x_lm741.11)   11.9600           (X_U7.x_lm741.12)   11.9600               

(X_U7.x_lm741.13)    1.5583           (X_U7.x_lm741.14)    1.5583               

(X_U7.x_lm741.53)   11.0000           (X_U7.x_lm741.54)  -11.0000               

(X_U7.x_lm741.90)     .1723           (X_U7.x_lm741.91)   40.0000               

(X_U7.x_lm741.92)  -40.0000           (X_U7.x_lm741.99)    0.0000               

(X_U8.x_lm741.10)    1.2101           (X_U8.x_lm741.11)   11.9600               

(X_U8.x_lm741.12)   11.9600           (X_U8.x_lm741.13)    1.2241               

(X_U8.x_lm741.14)    1.2241           (X_U8.x_lm741.53)   11.0000               

(X_U8.x_lm741.54)  -11.0000           (X_U8.x_lm741.90)    -.1619               

(X_U8.x_lm741.91)   40.0000           (X_U8.x_lm741.92)  -40.0000               

(X_U8.x_lm741.99)    0.0000           (X_U9.x_lm741.10)    3.2045               

(X_U9.x_lm741.11)   12.0000           (X_U9.x_lm741.12)   11.9220               

(X_U9.x_lm741.13)    3.2045           (X_U9.x_lm741.14)    3.2319               

(X_U9.x_lm741.53)   11.0000           (X_U9.x_lm741.54)    1.0000               

(X_U9.x_lm741.90)   40.6100           (X_U9.x_lm741.91)   40.0000               

(X_U9.x_lm741.92)  -40.0000           (X_U9.x_lm741.99)    6.0000               

(X_U10.x_lm741.10)    3.2045          (X_U10.x_lm741.11)   12.0000              

(X_U10.x_lm741.12)   11.9220          (X_U10.x_lm741.13)    3.2045              

(X_U10.x_lm741.14)    3.2319          (X_U10.x_lm741.53)   11.0000              

(X_U10.x_lm741.54)    1.0000          (X_U10.x_lm741.90)   40.6100              

(X_U10.x_lm741.91)   40.0000          (X_U10.x_lm741.92)  -40.0000              

(X_U10.x_lm741.99)    6.0000          (X_U11.x_lm741.10)    5.2134              

(X_U11.x_lm741.11)   11.9210          (X_U11.x_lm741.12)   12.0000              

(X_U11.x_lm741.13)    5.2411          (X_U11.x_lm741.14)    5.2134              

(X_U11.x_lm741.53)   11.0000          (X_U11.x_lm741.54)    1.0000              

(X_U11.x_lm741.90)  -40.6060          (X_U11.x_lm741.91)   40.0000              

(X_U11.x_lm741.92)  -40.0000          (X_U11.x_lm741.99)    6.0000              

(X_U12.x_lm741.10)    7.2920          (X_U12.x_lm741.11)   11.9200              

(X_U12.x_lm741.12)   12.0000          (X_U12.x_lm741.13)    7.3200              

(X_U12.x_lm741.14)    7.2920          (X_U12.x_lm741.53)   11.0000              

(X_U12.x_lm741.54)    1.0000          (X_U12.x_lm741.90)  -40.6060              

(X_U12.x_lm741.91)   40.0000          (X_U12.x_lm741.92)  -40.0000              

(X_U12.x_lm741.99)    6.0000          (X_U13.x_lm741.10)    8.9673              

(X_U13.x_lm741.11)   11.9190          (X_U13.x_lm741.12)   12.0000              

(X_U13.x_lm741.13)    8.9956          (X_U13.x_lm741.14)    8.9673              

(X_U13.x_lm741.53)   11.0000          (X_U13.x_lm741.54)    1.0000              

(X_U13.x_lm741.90)  -40.6060          (X_U13.x_lm741.91)   40.0000              

(X_U13.x_lm741.92)  -40.0000          (X_U13.x_lm741.99)    6.0000          




    VOLTAGE SOURCE CURRENTS
    NAME         CURRENT

    V_V1         2.362E-02
    V_V2         4.010E-03
    X_U4.x_lm741.vb  -3.646E-09
    X_U4.x_lm741.vc   7.157E-12
    X_U4.x_lm741.ve   1.635E-11
    X_U4.x_lm741.vlim   1.623E-04
    X_U4.x_lm741.vlp  -3.984E-11
    X_U4.x_lm741.vln  -4.017E-11
    X_U7.x_lm741.vb  -2.053E-09
    X_U7.x_lm741.vc   8.848E-12
    X_U7.x_lm741.ve   1.466E-11
    X_U7.x_lm741.vlim   1.723E-04
    X_U7.x_lm741.vlp  -3.983E-11
    X_U7.x_lm741.vln  -4.018E-11
    X_U8.x_lm741.vb  -1.690E-09
    X_U8.x_lm741.vc   9.183E-12
    X_U8.x_lm741.ve   1.432E-11
    X_U8.x_lm741.vlim  -1.619E-04
    X_U8.x_lm741.vlp  -4.016E-11
    X_U8.x_lm741.vln  -3.984E-11
    X_U9.x_lm741.vb  -1.481E-05
    X_U9.x_lm741.vc  -1.962E-02
    X_U9.x_lm741.ve   1.066E-11
    X_U9.x_lm741.vlim   4.061E-02
    X_U9.x_lm741.vlp   1.374E-05
    X_U9.x_lm741.vln  -8.061E-11
    X_U10.x_lm741.vb  -1.481E-05
    X_U10.x_lm741.vc  -1.844E-02
    X_U10.x_lm741.ve   1.066E-11
    X_U10.x_lm741.vlim   4.061E-02
    X_U10.x_lm741.vlp   1.385E-05
    X_U10.x_lm741.vln  -8.061E-11
    X_U11.x_lm741.vb   1.494E-05
    X_U11.x_lm741.vc   1.082E-11
    X_U11.x_lm741.ve  -4.061E-02
    X_U11.x_lm741.vlim  -4.061E-02
    X_U11.x_lm741.vlp  -8.061E-11
    X_U11.x_lm741.vln   1.177E-05
    X_U12.x_lm741.vb   1.510E-05
    X_U12.x_lm741.vc   1.082E-11
    X_U12.x_lm741.ve  -4.061E-02
    X_U12.x_lm741.vlim  -4.061E-02
    X_U12.x_lm741.vlp  -8.061E-11
    X_U12.x_lm741.vln   1.195E-05
    X_U13.x_lm741.vb   1.524E-05
    X_U13.x_lm741.vc   1.082E-11
    X_U13.x_lm741.ve  -4.061E-02
    X_U13.x_lm741.vlim  -4.061E-02
    X_U13.x_lm741.vlp  -8.061E-11
    X_U13.x_lm741.vln   1.210E-05

    TOTAL POWER DISSIPATION  -7.79E-02  WATTS


**** 05/14/22 23:53:09 ******* PSpice 17.4.0 (Nov 2018) ******* ID# 0 ********

 ** Profile: "SCHEMATIC1-sim_tranzitoriu"  [ c:\cadence\lascuanamaria_orcad\proiect_cad-PSpiceFiles\SCHEMATIC1\sim_tranzitoriu.sim ] 


 ****     INITIAL TRANSIENT SOLUTION       TEMPERATURE =   27.000 DEG C

 ****     CURRENT STEP                     PARAM SENZOR =   29.0000E+03


******************************************************************************



 NODE   VOLTAGE     NODE   VOLTAGE     NODE   VOLTAGE     NODE   VOLTAGE


(  OUT)    2.2010  (  REF)    1.8181  ( +VCC)   12.0000  ( -VCC)  -12.0000      

( OUT1)    4.4028  (N00083)    2.2011 (N11289)    2.0248 (N11463)    2.0248     

(N11846)    1.8181 (N13042)    2.4407 (N13228)   11.7970 (N13284)    3.4006     

(N13710)   11.7960 (N13714)    2.9279 (N13754)    2.5316 (N14081)     .1837     

(N14085)     .1837 (N14125)    5.8528 (N14458)     .1837 (N14462)     .1837     

(N14502)    7.9320 (N14841)     .1837 (N14845)     .1837 (N14885)    9.6077     

(X_U4.x_lm741.6)-417.9E-06            (X_U4.x_lm741.7)    4.4131                

(X_U4.x_lm741.8)    4.4131            (X_U4.x_lm741.9)    0.0000                

(X_U7.x_lm741.6)-210.0E-06            (X_U7.x_lm741.7)    2.2098                

(X_U7.x_lm741.8)    2.2098            (X_U7.x_lm741.9)    0.0000                

(X_U8.x_lm741.6)-168.4E-06            (X_U8.x_lm741.7)    1.8077                

(X_U8.x_lm741.8)    1.8077            (X_U8.x_lm741.9)    0.0000                

(X_U9.x_lm741.6)   -1.4845            (X_U9.x_lm741.7)   13.8280                

(X_U9.x_lm741.8)   13.8280            (X_U9.x_lm741.9)    0.0000                

(X_U10.x_lm741.6)   -1.4845           (X_U10.x_lm741.7)   13.8260               

(X_U10.x_lm741.8)   13.8260           (X_U10.x_lm741.9)    0.0000               

(X_U11.x_lm741.6)    1.4936           (X_U11.x_lm741.7)   -1.8465               

(X_U11.x_lm741.8)   -1.8465           (X_U11.x_lm741.9)    0.0000               

(X_U12.x_lm741.6)    1.5105           (X_U12.x_lm741.7)   -1.8466               

(X_U12.x_lm741.8)   -1.8466           (X_U12.x_lm741.9)    0.0000               

(X_U13.x_lm741.6)    1.5240           (X_U13.x_lm741.7)   -1.8466               

(X_U13.x_lm741.8)   -1.8466           (X_U13.x_lm741.9)    0.0000               

(X_U4.x_lm741.10)    1.4167           (X_U4.x_lm741.11)   11.9600               

(X_U4.x_lm741.12)   11.9600           (X_U4.x_lm741.13)    1.4307               

(X_U4.x_lm741.14)    1.4308           (X_U4.x_lm741.53)   11.0000               

(X_U4.x_lm741.54)  -11.0000           (X_U4.x_lm741.90)     .2071               

(X_U4.x_lm741.91)   40.0000           (X_U4.x_lm741.92)  -40.0000               

(X_U4.x_lm741.99)    0.0000           (X_U7.x_lm741.10)    1.5929               

(X_U7.x_lm741.11)   11.9600           (X_U7.x_lm741.12)   11.9600               

(X_U7.x_lm741.13)    1.6069           (X_U7.x_lm741.14)    1.6070               

(X_U7.x_lm741.53)   11.0000           (X_U7.x_lm741.54)  -11.0000               

(X_U7.x_lm741.90)     .1762           (X_U7.x_lm741.91)   40.0000               

(X_U7.x_lm741.92)  -40.0000           (X_U7.x_lm741.99)    0.0000               

(X_U8.x_lm741.10)    1.2101           (X_U8.x_lm741.11)   11.9600               

(X_U8.x_lm741.12)   11.9600           (X_U8.x_lm741.13)    1.2241               

(X_U8.x_lm741.14)    1.2241           (X_U8.x_lm741.53)   11.0000               

(X_U8.x_lm741.54)  -11.0000           (X_U8.x_lm741.90)    -.2066               

(X_U8.x_lm741.91)   40.0000           (X_U8.x_lm741.92)  -40.0000               

(X_U8.x_lm741.99)    0.0000           (X_U9.x_lm741.10)    3.7637               

(X_U9.x_lm741.11)   12.0000           (X_U9.x_lm741.12)   11.9210               

(X_U9.x_lm741.13)    3.7637           (X_U9.x_lm741.14)    3.7913               

(X_U9.x_lm741.53)   11.0000           (X_U9.x_lm741.54)    1.0000               

(X_U9.x_lm741.90)   40.6100           (X_U9.x_lm741.91)   40.0000               

(X_U9.x_lm741.92)  -40.0000           (X_U9.x_lm741.99)    6.0000               

(X_U10.x_lm741.10)    3.7637          (X_U10.x_lm741.11)   12.0000              

(X_U10.x_lm741.12)   11.9210          (X_U10.x_lm741.13)    3.7637              

(X_U10.x_lm741.14)    3.7913          (X_U10.x_lm741.53)   11.0000              

(X_U10.x_lm741.54)    1.0000          (X_U10.x_lm741.90)   40.6100              

(X_U10.x_lm741.91)   40.0000          (X_U10.x_lm741.92)  -40.0000              

(X_U10.x_lm741.99)    6.0000          (X_U11.x_lm741.10)    5.2134              

(X_U11.x_lm741.11)   11.9210          (X_U11.x_lm741.12)   12.0000              

(X_U11.x_lm741.13)    5.2411          (X_U11.x_lm741.14)    5.2134              

(X_U11.x_lm741.53)   11.0000          (X_U11.x_lm741.54)    1.0000              

(X_U11.x_lm741.90)  -40.6060          (X_U11.x_lm741.91)   40.0000              

(X_U11.x_lm741.92)  -40.0000          (X_U11.x_lm741.99)    6.0000              

(X_U12.x_lm741.10)    7.2920          (X_U12.x_lm741.11)   11.9200              

(X_U12.x_lm741.12)   12.0000          (X_U12.x_lm741.13)    7.3200              

(X_U12.x_lm741.14)    7.2920          (X_U12.x_lm741.53)   11.0000              

(X_U12.x_lm741.54)    1.0000          (X_U12.x_lm741.90)  -40.6060              

(X_U12.x_lm741.91)   40.0000          (X_U12.x_lm741.92)  -40.0000              

(X_U12.x_lm741.99)    6.0000          (X_U13.x_lm741.10)    8.9673              

(X_U13.x_lm741.11)   11.9190          (X_U13.x_lm741.12)   12.0000              

(X_U13.x_lm741.13)    8.9956          (X_U13.x_lm741.14)    8.9673              

(X_U13.x_lm741.53)   11.0000          (X_U13.x_lm741.54)    1.0000              

(X_U13.x_lm741.90)  -40.6060          (X_U13.x_lm741.91)   40.0000              

(X_U13.x_lm741.92)  -40.0000          (X_U13.x_lm741.99)    6.0000          




    VOLTAGE SOURCE CURRENTS
    NAME         CURRENT

    V_V1         2.362E-02
    V_V2         4.010E-03
    X_U4.x_lm741.vb  -4.179E-09
    X_U4.x_lm741.vc   6.598E-12
    X_U4.x_lm741.ve   1.691E-11
    X_U4.x_lm741.vlim   2.071E-04
    X_U4.x_lm741.vlp  -3.979E-11
    X_U4.x_lm741.vln  -4.021E-11
    X_U7.x_lm741.vb  -2.100E-09
    X_U7.x_lm741.vc   8.800E-12
    X_U7.x_lm741.ve   1.471E-11
    X_U7.x_lm741.vlim   1.762E-04
    X_U7.x_lm741.vlp  -3.982E-11
    X_U7.x_lm741.vln  -4.018E-11
    X_U8.x_lm741.vb  -1.684E-09
    X_U8.x_lm741.vc   9.183E-12
    X_U8.x_lm741.ve   1.432E-11
    X_U8.x_lm741.vlim  -2.066E-04
    X_U8.x_lm741.vlp  -4.021E-11
    X_U8.x_lm741.vln  -3.980E-11
    X_U9.x_lm741.vb  -1.485E-05
    X_U9.x_lm741.vc  -1.962E-02
    X_U9.x_lm741.ve   1.066E-11
    X_U9.x_lm741.vlim   4.061E-02
    X_U9.x_lm741.vlp   1.378E-05
    X_U9.x_lm741.vln  -8.061E-11
    X_U10.x_lm741.vb  -1.485E-05
    X_U10.x_lm741.vc  -1.844E-02
    X_U10.x_lm741.ve   1.066E-11
    X_U10.x_lm741.vlim   4.061E-02
    X_U10.x_lm741.vlp   1.390E-05
    X_U10.x_lm741.vln  -8.061E-11
    X_U11.x_lm741.vb   1.494E-05
    X_U11.x_lm741.vc   1.082E-11
    X_U11.x_lm741.ve  -4.061E-02
    X_U11.x_lm741.vlim  -4.061E-02
    X_U11.x_lm741.vlp  -8.061E-11
    X_U11.x_lm741.vln   1.177E-05
    X_U12.x_lm741.vb   1.510E-05
    X_U12.x_lm741.vc   1.082E-11
    X_U12.x_lm741.ve  -4.061E-02
    X_U12.x_lm741.vlim  -4.061E-02
    X_U12.x_lm741.vlp  -8.061E-11
    X_U12.x_lm741.vln   1.195E-05
    X_U13.x_lm741.vb   1.524E-05
    X_U13.x_lm741.vc   1.082E-11
    X_U13.x_lm741.ve  -4.061E-02
    X_U13.x_lm741.vlim  -4.061E-02
    X_U13.x_lm741.vlp  -8.061E-11
    X_U13.x_lm741.vln   1.210E-05

    TOTAL POWER DISSIPATION  -7.80E-02  WATTS


**** 05/14/22 23:53:09 ******* PSpice 17.4.0 (Nov 2018) ******* ID# 0 ********

 ** Profile: "SCHEMATIC1-sim_tranzitoriu"  [ c:\cadence\lascuanamaria_orcad\proiect_cad-PSpiceFiles\SCHEMATIC1\sim_tranzitoriu.sim ] 


 ****     INITIAL TRANSIENT SOLUTION       TEMPERATURE =   27.000 DEG C

 ****     CURRENT STEP                     PARAM SENZOR =   30.0000E+03


******************************************************************************



 NODE   VOLTAGE     NODE   VOLTAGE     NODE   VOLTAGE     NODE   VOLTAGE


(  OUT)    2.2484  (  REF)    1.8181  ( +VCC)   12.0000  ( -VCC)  -12.0000      

( OUT1)    4.9482  (N00083)    2.2485 (N11289)    2.0684 (N11463)    2.0685     

(N11846)    1.8181 (N13042)    2.4407 (N13228)   11.7970 (N13284)    3.4006     

(N13710)   11.7960 (N13714)    2.9279 (N13754)    2.5316 (N14081)     .1837     

(N14085)     .1837 (N14125)    5.8528 (N14458)     .1837 (N14462)     .1837     

(N14502)    7.9320 (N14841)     .1837 (N14845)     .1837 (N14885)    9.6077     

(X_U4.x_lm741.6)-470.0E-06            (X_U4.x_lm741.7)    4.9608                

(X_U4.x_lm741.8)    4.9608            (X_U4.x_lm741.9)    0.0000                

(X_U7.x_lm741.6)-214.5E-06            (X_U7.x_lm741.7)    2.2574                

(X_U7.x_lm741.8)    2.2574            (X_U7.x_lm741.9)    0.0000                

(X_U8.x_lm741.6)-167.8E-06            (X_U8.x_lm741.7)    1.8056                

(X_U8.x_lm741.8)    1.8056            (X_U8.x_lm741.9)    0.0000                

(X_U9.x_lm741.6)   -1.4883            (X_U9.x_lm741.7)   13.8280                

(X_U9.x_lm741.8)   13.8280            (X_U9.x_lm741.9)    0.0000                

(X_U10.x_lm741.6)   -1.4883           (X_U10.x_lm741.7)   13.8260               

(X_U10.x_lm741.8)   13.8260           (X_U10.x_lm741.9)    0.0000               

(X_U11.x_lm741.6)    1.4936           (X_U11.x_lm741.7)   -1.8465               

(X_U11.x_lm741.8)   -1.8465           (X_U11.x_lm741.9)    0.0000               

(X_U12.x_lm741.6)    1.5105           (X_U12.x_lm741.7)   -1.8466               

(X_U12.x_lm741.8)   -1.8466           (X_U12.x_lm741.9)    0.0000               

(X_U13.x_lm741.6)    1.5240           (X_U13.x_lm741.7)   -1.8466               

(X_U13.x_lm741.8)   -1.8466           (X_U13.x_lm741.9)    0.0000               

(X_U4.x_lm741.10)    1.4604           (X_U4.x_lm741.11)   11.9600               

(X_U4.x_lm741.12)   11.9600           (X_U4.x_lm741.13)    1.4744               

(X_U4.x_lm741.14)    1.4744           (X_U4.x_lm741.53)   11.0000               

(X_U4.x_lm741.54)  -11.0000           (X_U4.x_lm741.90)     .2507               

(X_U4.x_lm741.91)   40.0000           (X_U4.x_lm741.92)  -40.0000               

(X_U4.x_lm741.99)    0.0000           (X_U7.x_lm741.10)    1.6403               

(X_U7.x_lm741.11)   11.9600           (X_U7.x_lm741.12)   11.9600               

(X_U7.x_lm741.13)    1.6544           (X_U7.x_lm741.14)    1.6544               

(X_U7.x_lm741.53)   11.0000           (X_U7.x_lm741.54)  -11.0000               

(X_U7.x_lm741.90)     .1800           (X_U7.x_lm741.91)   40.0000               

(X_U7.x_lm741.92)  -40.0000           (X_U7.x_lm741.99)    0.0000               

(X_U8.x_lm741.10)    1.2101           (X_U8.x_lm741.11)   11.9600               

(X_U8.x_lm741.12)   11.9600           (X_U8.x_lm741.13)    1.2241               

(X_U8.x_lm741.14)    1.2241           (X_U8.x_lm741.53)   11.0000               

(X_U8.x_lm741.54)  -11.0000           (X_U8.x_lm741.90)    -.2503               

(X_U8.x_lm741.91)   40.0000           (X_U8.x_lm741.92)  -40.0000               

(X_U8.x_lm741.99)    0.0000           (X_U9.x_lm741.10)    4.3090               

(X_U9.x_lm741.11)   12.0000           (X_U9.x_lm741.12)   11.9210               

(X_U9.x_lm741.13)    4.3090           (X_U9.x_lm741.14)    4.3366               

(X_U9.x_lm741.53)   11.0000           (X_U9.x_lm741.54)    1.0000               

(X_U9.x_lm741.90)   40.6100           (X_U9.x_lm741.91)   40.0000               

(X_U9.x_lm741.92)  -40.0000           (X_U9.x_lm741.99)    6.0000               

(X_U10.x_lm741.10)    4.3090          (X_U10.x_lm741.11)   12.0000              

(X_U10.x_lm741.12)   11.9210          (X_U10.x_lm741.13)    4.3090              

(X_U10.x_lm741.14)    4.3366          (X_U10.x_lm741.53)   11.0000              

(X_U10.x_lm741.54)    1.0000          (X_U10.x_lm741.90)   40.6100              

(X_U10.x_lm741.91)   40.0000          (X_U10.x_lm741.92)  -40.0000              

(X_U10.x_lm741.99)    6.0000          (X_U11.x_lm741.10)    5.2134              

(X_U11.x_lm741.11)   11.9210          (X_U11.x_lm741.12)   12.0000              

(X_U11.x_lm741.13)    5.2411          (X_U11.x_lm741.14)    5.2134              

(X_U11.x_lm741.53)   11.0000          (X_U11.x_lm741.54)    1.0000              

(X_U11.x_lm741.90)  -40.6060          (X_U11.x_lm741.91)   40.0000              

(X_U11.x_lm741.92)  -40.0000          (X_U11.x_lm741.99)    6.0000              

(X_U12.x_lm741.10)    7.2920          (X_U12.x_lm741.11)   11.9200              

(X_U12.x_lm741.12)   12.0000          (X_U12.x_lm741.13)    7.3200              

(X_U12.x_lm741.14)    7.2920          (X_U12.x_lm741.53)   11.0000              

(X_U12.x_lm741.54)    1.0000          (X_U12.x_lm741.90)  -40.6060              

(X_U12.x_lm741.91)   40.0000          (X_U12.x_lm741.92)  -40.0000              

(X_U12.x_lm741.99)    6.0000          (X_U13.x_lm741.10)    8.9673              

(X_U13.x_lm741.11)   11.9190          (X_U13.x_lm741.12)   12.0000              

(X_U13.x_lm741.13)    8.9956          (X_U13.x_lm741.14)    8.9673              

(X_U13.x_lm741.53)   11.0000          (X_U13.x_lm741.54)    1.0000              

(X_U13.x_lm741.90)  -40.6060          (X_U13.x_lm741.91)   40.0000              

(X_U13.x_lm741.92)  -40.0000          (X_U13.x_lm741.99)    6.0000          




    VOLTAGE SOURCE CURRENTS
    NAME         CURRENT

    V_V1         2.362E-02
    V_V2         4.010E-03
    X_U4.x_lm741.vb  -4.700E-09
    X_U4.x_lm741.vc   6.053E-12
    X_U4.x_lm741.ve   1.745E-11
    X_U4.x_lm741.vlim   2.507E-04
    X_U4.x_lm741.vlp  -3.975E-11
    X_U4.x_lm741.vln  -4.025E-11
    X_U7.x_lm741.vb  -2.145E-09
    X_U7.x_lm741.vc   8.752E-12
    X_U7.x_lm741.ve   1.475E-11
    X_U7.x_lm741.vlim   1.800E-04
    X_U7.x_lm741.vlp  -3.982E-11
    X_U7.x_lm741.vln  -4.018E-11
    X_U8.x_lm741.vb  -1.678E-09
    X_U8.x_lm741.vc   9.183E-12
    X_U8.x_lm741.ve   1.432E-11
    X_U8.x_lm741.vlim  -2.503E-04
    X_U8.x_lm741.vlp  -4.025E-11
    X_U8.x_lm741.vln  -3.975E-11
    X_U9.x_lm741.vb  -1.488E-05
    X_U9.x_lm741.vc  -1.962E-02
    X_U9.x_lm741.ve   1.066E-11
    X_U9.x_lm741.vlim   4.061E-02
    X_U9.x_lm741.vlp   1.382E-05
    X_U9.x_lm741.vln  -8.061E-11
    X_U10.x_lm741.vb  -1.488E-05
    X_U10.x_lm741.vc  -1.844E-02
    X_U10.x_lm741.ve   1.066E-11
    X_U10.x_lm741.vlim   4.061E-02
    X_U10.x_lm741.vlp   1.394E-05
    X_U10.x_lm741.vln  -8.061E-11
    X_U11.x_lm741.vb   1.494E-05
    X_U11.x_lm741.vc   1.082E-11
    X_U11.x_lm741.ve  -4.061E-02
    X_U11.x_lm741.vlim  -4.061E-02
    X_U11.x_lm741.vlp  -8.061E-11
    X_U11.x_lm741.vln   1.177E-05
    X_U12.x_lm741.vb   1.510E-05
    X_U12.x_lm741.vc   1.082E-11
    X_U12.x_lm741.ve  -4.061E-02
    X_U12.x_lm741.vlim  -4.061E-02
    X_U12.x_lm741.vlp  -8.061E-11
    X_U12.x_lm741.vln   1.195E-05
    X_U13.x_lm741.vb   1.524E-05
    X_U13.x_lm741.vc   1.082E-11
    X_U13.x_lm741.ve  -4.061E-02
    X_U13.x_lm741.vlim  -4.061E-02
    X_U13.x_lm741.vlp  -8.061E-11
    X_U13.x_lm741.vln   1.210E-05

    TOTAL POWER DISSIPATION  -7.80E-02  WATTS


**** 05/14/22 23:53:09 ******* PSpice 17.4.0 (Nov 2018) ******* ID# 0 ********

 ** Profile: "SCHEMATIC1-sim_tranzitoriu"  [ c:\cadence\lascuanamaria_orcad\proiect_cad-PSpiceFiles\SCHEMATIC1\sim_tranzitoriu.sim ] 


 ****     INITIAL TRANSIENT SOLUTION       TEMPERATURE =   27.000 DEG C

 ****     CURRENT STEP                     PARAM SENZOR =   31.0000E+03


******************************************************************************



 NODE   VOLTAGE     NODE   VOLTAGE     NODE   VOLTAGE     NODE   VOLTAGE


(  OUT)    2.2947  (  REF)    1.8181  ( +VCC)   12.0000  ( -VCC)  -12.0000      

( OUT1)    5.4802  (N00083)    2.2948 (N11289)    2.1110 (N11463)    2.1110     

(N11846)    1.8181 (N13042)    2.4407 (N13228)   11.7970 (N13284)    3.4006     

(N13710)   11.7960 (N13714)    2.9279 (N13754)    2.5316 (N14081)     .1837     

(N14085)     .1837 (N14125)    5.8528 (N14458)     .1837 (N14462)     .1837     

(N14502)    7.9320 (N14841)     .1837 (N14845)     .1837 (N14885)    9.6077     

(X_U4.x_lm741.6)-520.7E-06            (X_U4.x_lm741.7)    5.4949                

(X_U4.x_lm741.8)    5.4949            (X_U4.x_lm741.9)    0.0000                

(X_U7.x_lm741.6)-218.9E-06            (X_U7.x_lm741.7)    2.3039                

(X_U7.x_lm741.8)    2.3039            (X_U7.x_lm741.9)    0.0000                

(X_U8.x_lm741.6)-167.2E-06            (X_U8.x_lm741.7)    1.8034                

(X_U8.x_lm741.8)    1.8034            (X_U8.x_lm741.9)    0.0000                

(X_U9.x_lm741.6)   -1.4920            (X_U9.x_lm741.7)   13.8280                

(X_U9.x_lm741.8)   13.8280            (X_U9.x_lm741.9)    0.0000                

(X_U10.x_lm741.6)   -1.4920           (X_U10.x_lm741.7)   13.8260               

(X_U10.x_lm741.8)   13.8260           (X_U10.x_lm741.9)    0.0000               

(X_U11.x_lm741.6)    1.4936           (X_U11.x_lm741.7)   -1.8465               

(X_U11.x_lm741.8)   -1.8465           (X_U11.x_lm741.9)    0.0000               

(X_U12.x_lm741.6)    1.5105           (X_U12.x_lm741.7)   -1.8466               

(X_U12.x_lm741.8)   -1.8466           (X_U12.x_lm741.9)    0.0000               

(X_U13.x_lm741.6)    1.5240           (X_U13.x_lm741.7)   -1.8466               

(X_U13.x_lm741.8)   -1.8466           (X_U13.x_lm741.9)    0.0000               

(X_U4.x_lm741.10)    1.5029           (X_U4.x_lm741.11)   11.9600               

(X_U4.x_lm741.12)   11.9600           (X_U4.x_lm741.13)    1.5169               

(X_U4.x_lm741.14)    1.5169           (X_U4.x_lm741.53)   11.0000               

(X_U4.x_lm741.54)  -11.0000           (X_U4.x_lm741.90)     .2933               

(X_U4.x_lm741.91)   40.0000           (X_U4.x_lm741.92)  -40.0000               

(X_U4.x_lm741.99)    0.0000           (X_U7.x_lm741.10)    1.6866               

(X_U7.x_lm741.11)   11.9600           (X_U7.x_lm741.12)   11.9600               

(X_U7.x_lm741.13)    1.7006           (X_U7.x_lm741.14)    1.7006               

(X_U7.x_lm741.53)   11.0000           (X_U7.x_lm741.54)  -11.0000               

(X_U7.x_lm741.90)     .1837           (X_U7.x_lm741.91)   40.0000               

(X_U7.x_lm741.92)  -40.0000           (X_U7.x_lm741.99)    0.0000               

(X_U8.x_lm741.10)    1.2101           (X_U8.x_lm741.11)   11.9600               

(X_U8.x_lm741.12)   11.9600           (X_U8.x_lm741.13)    1.2241               

(X_U8.x_lm741.14)    1.2241           (X_U8.x_lm741.53)   11.0000               

(X_U8.x_lm741.54)  -11.0000           (X_U8.x_lm741.90)    -.2928               

(X_U8.x_lm741.91)   40.0000           (X_U8.x_lm741.92)  -40.0000               

(X_U8.x_lm741.99)    0.0000           (X_U9.x_lm741.10)    4.8409               

(X_U9.x_lm741.11)   12.0000           (X_U9.x_lm741.12)   11.9210               

(X_U9.x_lm741.13)    4.8409           (X_U9.x_lm741.14)    4.8685               

(X_U9.x_lm741.53)   11.0000           (X_U9.x_lm741.54)    1.0000               

(X_U9.x_lm741.90)   40.6100           (X_U9.x_lm741.91)   40.0000               

(X_U9.x_lm741.92)  -40.0000           (X_U9.x_lm741.99)    6.0000               

(X_U10.x_lm741.10)    4.8409          (X_U10.x_lm741.11)   12.0000              

(X_U10.x_lm741.12)   11.9210          (X_U10.x_lm741.13)    4.8409              

(X_U10.x_lm741.14)    4.8685          (X_U10.x_lm741.53)   11.0000              

(X_U10.x_lm741.54)    1.0000          (X_U10.x_lm741.90)   40.6100              

(X_U10.x_lm741.91)   40.0000          (X_U10.x_lm741.92)  -40.0000              

(X_U10.x_lm741.99)    6.0000          (X_U11.x_lm741.10)    5.2134              

(X_U11.x_lm741.11)   11.9210          (X_U11.x_lm741.12)   12.0000              

(X_U11.x_lm741.13)    5.2411          (X_U11.x_lm741.14)    5.2134              

(X_U11.x_lm741.53)   11.0000          (X_U11.x_lm741.54)    1.0000              

(X_U11.x_lm741.90)  -40.6060          (X_U11.x_lm741.91)   40.0000              

(X_U11.x_lm741.92)  -40.0000          (X_U11.x_lm741.99)    6.0000              

(X_U12.x_lm741.10)    7.2920          (X_U12.x_lm741.11)   11.9200              

(X_U12.x_lm741.12)   12.0000          (X_U12.x_lm741.13)    7.3200              

(X_U12.x_lm741.14)    7.2920          (X_U12.x_lm741.53)   11.0000              

(X_U12.x_lm741.54)    1.0000          (X_U12.x_lm741.90)  -40.6060              

(X_U12.x_lm741.91)   40.0000          (X_U12.x_lm741.92)  -40.0000              

(X_U12.x_lm741.99)    6.0000          (X_U13.x_lm741.10)    8.9673              

(X_U13.x_lm741.11)   11.9190          (X_U13.x_lm741.12)   12.0000              

(X_U13.x_lm741.13)    8.9956          (X_U13.x_lm741.14)    8.9673              

(X_U13.x_lm741.53)   11.0000          (X_U13.x_lm741.54)    1.0000              

(X_U13.x_lm741.90)  -40.6060          (X_U13.x_lm741.91)   40.0000              

(X_U13.x_lm741.92)  -40.0000          (X_U13.x_lm741.99)    6.0000          




    VOLTAGE SOURCE CURRENTS
    NAME         CURRENT

    V_V1         2.362E-02
    V_V2         4.010E-03
    X_U4.x_lm741.vb  -5.207E-09
    X_U4.x_lm741.vc   5.521E-12
    X_U4.x_lm741.ve   1.799E-11
    X_U4.x_lm741.vlim   2.933E-04
    X_U4.x_lm741.vlp  -3.971E-11
    X_U4.x_lm741.vln  -4.030E-11
    X_U7.x_lm741.vb  -2.189E-09
    X_U7.x_lm741.vc   8.706E-12
    X_U7.x_lm741.ve   1.480E-11
    X_U7.x_lm741.vlim   1.837E-04
    X_U7.x_lm741.vlp  -3.982E-11
    X_U7.x_lm741.vln  -4.019E-11
    X_U8.x_lm741.vb  -1.672E-09
    X_U8.x_lm741.vc   9.183E-12
    X_U8.x_lm741.ve   1.432E-11
    X_U8.x_lm741.vlim  -2.928E-04
    X_U8.x_lm741.vlp  -4.029E-11
    X_U8.x_lm741.vln  -3.971E-11
    X_U9.x_lm741.vb  -1.492E-05
    X_U9.x_lm741.vc  -1.962E-02
    X_U9.x_lm741.ve   1.066E-11
    X_U9.x_lm741.vlim   4.061E-02
    X_U9.x_lm741.vlp   1.386E-05
    X_U9.x_lm741.vln  -8.061E-11
    X_U10.x_lm741.vb  -1.492E-05
    X_U10.x_lm741.vc  -1.844E-02
    X_U10.x_lm741.ve   1.066E-11
    X_U10.x_lm741.vlim   4.061E-02
    X_U10.x_lm741.vlp   1.397E-05
    X_U10.x_lm741.vln  -8.061E-11
    X_U11.x_lm741.vb   1.494E-05
    X_U11.x_lm741.vc   1.082E-11
    X_U11.x_lm741.ve  -4.061E-02
    X_U11.x_lm741.vlim  -4.061E-02
    X_U11.x_lm741.vlp  -8.061E-11
    X_U11.x_lm741.vln   1.177E-05
    X_U12.x_lm741.vb   1.510E-05
    X_U12.x_lm741.vc   1.082E-11
    X_U12.x_lm741.ve  -4.061E-02
    X_U12.x_lm741.vlim  -4.061E-02
    X_U12.x_lm741.vlp  -8.061E-11
    X_U12.x_lm741.vln   1.195E-05
    X_U13.x_lm741.vb   1.524E-05
    X_U13.x_lm741.vc   1.082E-11
    X_U13.x_lm741.ve  -4.061E-02
    X_U13.x_lm741.vlim  -4.061E-02
    X_U13.x_lm741.vlp  -8.061E-11
    X_U13.x_lm741.vln   1.210E-05

    TOTAL POWER DISSIPATION  -7.80E-02  WATTS


**** 05/14/22 23:53:09 ******* PSpice 17.4.0 (Nov 2018) ******* ID# 0 ********

 ** Profile: "SCHEMATIC1-sim_tranzitoriu"  [ c:\cadence\lascuanamaria_orcad\proiect_cad-PSpiceFiles\SCHEMATIC1\sim_tranzitoriu.sim ] 


 ****     INITIAL TRANSIENT SOLUTION       TEMPERATURE =   27.000 DEG C

 ****     CURRENT STEP                     PARAM SENZOR =   32.0000E+03


******************************************************************************



 NODE   VOLTAGE     NODE   VOLTAGE     NODE   VOLTAGE     NODE   VOLTAGE


(  OUT)    2.3398  (  REF)    1.8181  ( +VCC)   12.0000  ( -VCC)  -12.0000      

( OUT1)    5.9992  (N00083)    2.3399 (N11289)    2.1525 (N11463)    2.1526     

(N11846)    1.8181 (N13042)    2.4407 (N13228)   11.7970 (N13284)    3.4006     

(N13710)   11.7960 (N13714)    2.9279 (N13754)    2.5316 (N14081)   11.7980     

(N14085)    1.6865 (N14125)    5.8537 (N14458)     .1837 (N14462)     .1837     

(N14502)    7.9320 (N14841)     .1837 (N14845)     .1837 (N14885)    9.6077     

(X_U4.x_lm741.6)-570.2E-06            (X_U4.x_lm741.7)    6.0159                

(X_U4.x_lm741.8)    6.0159            (X_U4.x_lm741.9)    0.0000                

(X_U7.x_lm741.6)-223.2E-06            (X_U7.x_lm741.7)    2.3492                

(X_U7.x_lm741.8)    2.3492            (X_U7.x_lm741.9)    0.0000                

(X_U8.x_lm741.6)-166.6E-06            (X_U8.x_lm741.7)    1.8014                

(X_U8.x_lm741.8)    1.8014            (X_U8.x_lm741.9)    0.0000                

(X_U9.x_lm741.6)   -1.4956            (X_U9.x_lm741.7)   13.8280                

(X_U9.x_lm741.8)   13.8280            (X_U9.x_lm741.9)    0.0000                

(X_U10.x_lm741.6)   -1.4956           (X_U10.x_lm741.7)   13.8260               

(X_U10.x_lm741.8)   13.8260           (X_U10.x_lm741.9)    0.0000               

(X_U11.x_lm741.6)   -1.4651           (X_U11.x_lm741.7)   13.8290               

(X_U11.x_lm741.8)   13.8290           (X_U11.x_lm741.9)    0.0000               

(X_U12.x_lm741.6)    1.5105           (X_U12.x_lm741.7)   -1.8466               

(X_U12.x_lm741.8)   -1.8466           (X_U12.x_lm741.9)    0.0000               

(X_U13.x_lm741.6)    1.5240           (X_U13.x_lm741.7)   -1.8466               

(X_U13.x_lm741.8)   -1.8466           (X_U13.x_lm741.9)    0.0000               

(X_U4.x_lm741.10)    1.5444           (X_U4.x_lm741.11)   11.9600               

(X_U4.x_lm741.12)   11.9600           (X_U4.x_lm741.13)    1.5584               

(X_U4.x_lm741.14)    1.5585           (X_U4.x_lm741.53)   11.0000               

(X_U4.x_lm741.54)  -11.0000           (X_U4.x_lm741.90)     .3350               

(X_U4.x_lm741.91)   40.0000           (X_U4.x_lm741.92)  -40.0000               

(X_U4.x_lm741.99)    0.0000           (X_U7.x_lm741.10)    1.7317               

(X_U7.x_lm741.11)   11.9600           (X_U7.x_lm741.12)   11.9600               

(X_U7.x_lm741.13)    1.7457           (X_U7.x_lm741.14)    1.7458               

(X_U7.x_lm741.53)   11.0000           (X_U7.x_lm741.54)  -11.0000               

(X_U7.x_lm741.90)     .1873           (X_U7.x_lm741.91)   40.0000               

(X_U7.x_lm741.92)  -40.0000           (X_U7.x_lm741.99)    0.0000               

(X_U8.x_lm741.10)    1.2101           (X_U8.x_lm741.11)   11.9600               

(X_U8.x_lm741.12)   11.9600           (X_U8.x_lm741.13)    1.2241               

(X_U8.x_lm741.14)    1.2241           (X_U8.x_lm741.53)   11.0000               

(X_U8.x_lm741.54)  -11.0000           (X_U8.x_lm741.90)    -.3343               

(X_U8.x_lm741.91)   40.0000           (X_U8.x_lm741.92)  -40.0000               

(X_U8.x_lm741.99)    0.0000           (X_U9.x_lm741.10)    5.3597               

(X_U9.x_lm741.11)   12.0000           (X_U9.x_lm741.12)   11.9210               

(X_U9.x_lm741.13)    5.3597           (X_U9.x_lm741.14)    5.3875               

(X_U9.x_lm741.53)   11.0000           (X_U9.x_lm741.54)    1.0000               

(X_U9.x_lm741.90)   40.6100           (X_U9.x_lm741.91)   40.0000               

(X_U9.x_lm741.92)  -40.0000           (X_U9.x_lm741.99)    6.0000               

(X_U10.x_lm741.10)    5.3597          (X_U10.x_lm741.11)   12.0000              

(X_U10.x_lm741.12)   11.9210          (X_U10.x_lm741.13)    5.3597              

(X_U10.x_lm741.14)    5.3875          (X_U10.x_lm741.53)   11.0000              

(X_U10.x_lm741.54)    1.0000          (X_U10.x_lm741.90)   40.6100              

(X_U10.x_lm741.91)   40.0000          (X_U10.x_lm741.92)  -40.0000              

(X_U10.x_lm741.99)    6.0000          (X_U11.x_lm741.10)    5.3603              

(X_U11.x_lm741.11)   11.9990          (X_U11.x_lm741.12)   11.9210              

(X_U11.x_lm741.13)    5.3606          (X_U11.x_lm741.14)    5.3877              

(X_U11.x_lm741.53)   11.0000          (X_U11.x_lm741.54)    1.0000              

(X_U11.x_lm741.90)   40.6090          (X_U11.x_lm741.91)   40.0000              

(X_U11.x_lm741.92)  -40.0000          (X_U11.x_lm741.99)    6.0000              

(X_U12.x_lm741.10)    7.2920          (X_U12.x_lm741.11)   11.9200              

(X_U12.x_lm741.12)   12.0000          (X_U12.x_lm741.13)    7.3200              

(X_U12.x_lm741.14)    7.2920          (X_U12.x_lm741.53)   11.0000              

(X_U12.x_lm741.54)    1.0000          (X_U12.x_lm741.90)  -40.6060              

(X_U12.x_lm741.91)   40.0000          (X_U12.x_lm741.92)  -40.0000              

(X_U12.x_lm741.99)    6.0000          (X_U13.x_lm741.10)    8.9673              

(X_U13.x_lm741.11)   11.9190          (X_U13.x_lm741.12)   12.0000              

(X_U13.x_lm741.13)    8.9956          (X_U13.x_lm741.14)    8.9673              

(X_U13.x_lm741.53)   11.0000          (X_U13.x_lm741.54)    1.0000              

(X_U13.x_lm741.90)  -40.6060          (X_U13.x_lm741.91)   40.0000              

(X_U13.x_lm741.92)  -40.0000          (X_U13.x_lm741.99)    6.0000          




    VOLTAGE SOURCE CURRENTS
    NAME         CURRENT

    V_V1         4.400E-02
    V_V2         4.010E-03
    X_U4.x_lm741.vb  -5.702E-09
    X_U4.x_lm741.vc   5.002E-12
    X_U4.x_lm741.ve   1.851E-11
    X_U4.x_lm741.vlim   3.350E-04
    X_U4.x_lm741.vlp  -3.967E-11
    X_U4.x_lm741.vln  -4.034E-11
    X_U7.x_lm741.vb  -2.232E-09
    X_U7.x_lm741.vc   8.661E-12
    X_U7.x_lm741.ve   1.485E-11
    X_U7.x_lm741.vlim   1.873E-04
    X_U7.x_lm741.vlp  -3.981E-11
    X_U7.x_lm741.vln  -4.019E-11
    X_U8.x_lm741.vb  -1.666E-09
    X_U8.x_lm741.vc   9.183E-12
    X_U8.x_lm741.ve   1.432E-11
    X_U8.x_lm741.vlim  -3.343E-04
    X_U8.x_lm741.vlp  -4.034E-11
    X_U8.x_lm741.vln  -3.967E-11
    X_U9.x_lm741.vb  -1.496E-05
    X_U9.x_lm741.vc  -1.962E-02
    X_U9.x_lm741.ve   1.066E-11
    X_U9.x_lm741.vlim   4.061E-02
    X_U9.x_lm741.vlp   1.389E-05
    X_U9.x_lm741.vln  -8.061E-11
    X_U10.x_lm741.vb  -1.496E-05
    X_U10.x_lm741.vc  -1.844E-02
    X_U10.x_lm741.ve   1.066E-11
    X_U10.x_lm741.vlim   4.061E-02
    X_U10.x_lm741.vlp   1.401E-05
    X_U10.x_lm741.vln  -8.061E-11
    X_U11.x_lm741.vb  -1.465E-05
    X_U11.x_lm741.vc  -2.039E-02
    X_U11.x_lm741.ve   1.066E-11
    X_U11.x_lm741.vlim   4.061E-02
    X_U11.x_lm741.vlp   1.349E-05
    X_U11.x_lm741.vln  -8.061E-11
    X_U12.x_lm741.vb   1.510E-05
    X_U12.x_lm741.vc   1.082E-11
    X_U12.x_lm741.ve  -4.061E-02
    X_U12.x_lm741.vlim  -4.061E-02
    X_U12.x_lm741.vlp  -8.061E-11
    X_U12.x_lm741.vln   1.195E-05
    X_U13.x_lm741.vb   1.524E-05
    X_U13.x_lm741.vc   1.082E-11
    X_U13.x_lm741.ve  -4.061E-02
    X_U13.x_lm741.vlim  -4.061E-02
    X_U13.x_lm741.vlp  -8.061E-11
    X_U13.x_lm741.vln   1.210E-05

    TOTAL POWER DISSIPATION  -3.43E-01  WATTS


**** 05/14/22 23:53:09 ******* PSpice 17.4.0 (Nov 2018) ******* ID# 0 ********

 ** Profile: "SCHEMATIC1-sim_tranzitoriu"  [ c:\cadence\lascuanamaria_orcad\proiect_cad-PSpiceFiles\SCHEMATIC1\sim_tranzitoriu.sim ] 


 ****     INITIAL TRANSIENT SOLUTION       TEMPERATURE =   27.000 DEG C

 ****     CURRENT STEP                     PARAM SENZOR =   33.0000E+03


******************************************************************************



 NODE   VOLTAGE     NODE   VOLTAGE     NODE   VOLTAGE     NODE   VOLTAGE


(  OUT)    2.3839  (  REF)    1.8181  ( +VCC)   12.0000  ( -VCC)  -12.0000      

( OUT1)    6.5057  (N00083)    2.3839 (N11289)    2.1930 (N11463)    2.1931     

(N11846)    1.8181 (N13042)    2.4407 (N13228)   11.7970 (N13284)    3.4006     

(N13710)   11.7960 (N13714)    2.9279 (N13754)    2.5316 (N14081)   11.7980     

(N14085)    1.6865 (N14125)    5.8537 (N14458)     .1837 (N14462)     .1837     

(N14502)    7.9320 (N14841)     .1837 (N14845)     .1837 (N14885)    9.6077     

(X_U4.x_lm741.6)-618.5E-06            (X_U4.x_lm741.7)    6.5245                

(X_U4.x_lm741.8)    6.5245            (X_U4.x_lm741.9)    0.0000                

(X_U7.x_lm741.6)-227.4E-06            (X_U7.x_lm741.7)    2.3934                

(X_U7.x_lm741.8)    2.3934            (X_U7.x_lm741.9)    0.0000                

(X_U8.x_lm741.6)-166.0E-06            (X_U8.x_lm741.7)    1.7993                

(X_U8.x_lm741.8)    1.7993            (X_U8.x_lm741.9)    0.0000                

(X_U9.x_lm741.6)   -1.4991            (X_U9.x_lm741.7)   13.8280                

(X_U9.x_lm741.8)   13.8280            (X_U9.x_lm741.9)    0.0000                

(X_U10.x_lm741.6)   -1.4991           (X_U10.x_lm741.7)   13.8260               

(X_U10.x_lm741.8)   13.8260           (X_U10.x_lm741.9)    0.0000               

(X_U11.x_lm741.6)   -1.4991           (X_U11.x_lm741.7)   13.8290               

(X_U11.x_lm741.8)   13.8290           (X_U11.x_lm741.9)    0.0000               

(X_U12.x_lm741.6)    1.5105           (X_U12.x_lm741.7)   -1.8466               

(X_U12.x_lm741.8)   -1.8466           (X_U12.x_lm741.9)    0.0000               

(X_U13.x_lm741.6)    1.5240           (X_U13.x_lm741.7)   -1.8466               

(X_U13.x_lm741.8)   -1.8466           (X_U13.x_lm741.9)    0.0000               

(X_U4.x_lm741.10)    1.5849           (X_U4.x_lm741.11)   11.9600               

(X_U4.x_lm741.12)   11.9600           (X_U4.x_lm741.13)    1.5989               

(X_U4.x_lm741.14)    1.5990           (X_U4.x_lm741.53)   11.0000               

(X_U4.x_lm741.54)  -11.0000           (X_U4.x_lm741.90)     .3755               

(X_U4.x_lm741.91)   40.0000           (X_U4.x_lm741.92)  -40.0000               

(X_U4.x_lm741.99)    0.0000           (X_U7.x_lm741.10)    1.7758               

(X_U7.x_lm741.11)   11.9600           (X_U7.x_lm741.12)   11.9600               

(X_U7.x_lm741.13)    1.7898           (X_U7.x_lm741.14)    1.7898               

(X_U7.x_lm741.53)   11.0000           (X_U7.x_lm741.54)  -11.0000               

(X_U7.x_lm741.90)     .1909           (X_U7.x_lm741.91)   40.0000               

(X_U7.x_lm741.92)  -40.0000           (X_U7.x_lm741.99)    0.0000               

(X_U8.x_lm741.10)    1.2101           (X_U8.x_lm741.11)   11.9600               

(X_U8.x_lm741.12)   11.9600           (X_U8.x_lm741.13)    1.2241               

(X_U8.x_lm741.14)    1.2241           (X_U8.x_lm741.53)   11.0000               

(X_U8.x_lm741.54)  -11.0000           (X_U8.x_lm741.90)    -.3749               

(X_U8.x_lm741.91)   40.0000           (X_U8.x_lm741.92)  -40.0000               

(X_U8.x_lm741.99)    0.0000           (X_U9.x_lm741.10)    5.8661               

(X_U9.x_lm741.11)   12.0000           (X_U9.x_lm741.12)   11.9200               

(X_U9.x_lm741.13)    5.8661           (X_U9.x_lm741.14)    5.8939               

(X_U9.x_lm741.53)   11.0000           (X_U9.x_lm741.54)    1.0000               

(X_U9.x_lm741.90)   40.6100           (X_U9.x_lm741.91)   40.0000               

(X_U9.x_lm741.92)  -40.0000           (X_U9.x_lm741.99)    6.0000               

(X_U10.x_lm741.10)    5.8661          (X_U10.x_lm741.11)   12.0000              

(X_U10.x_lm741.12)   11.9200          (X_U10.x_lm741.13)    5.8661              

(X_U10.x_lm741.14)    5.8939          (X_U10.x_lm741.53)   11.0000              

(X_U10.x_lm741.54)    1.0000          (X_U10.x_lm741.90)   40.6100              

(X_U10.x_lm741.91)   40.0000          (X_U10.x_lm741.92)  -40.0000              

(X_U10.x_lm741.99)    6.0000          (X_U11.x_lm741.10)    5.8661              

(X_U11.x_lm741.11)   12.0000          (X_U11.x_lm741.12)   11.9200              

(X_U11.x_lm741.13)    5.8661          (X_U11.x_lm741.14)    5.8939              

(X_U11.x_lm741.53)   11.0000          (X_U11.x_lm741.54)    1.0000              

(X_U11.x_lm741.90)   40.6100          (X_U11.x_lm741.91)   40.0000              

(X_U11.x_lm741.92)  -40.0000          (X_U11.x_lm741.99)    6.0000              

(X_U12.x_lm741.10)    7.2920          (X_U12.x_lm741.11)   11.9200              

(X_U12.x_lm741.12)   12.0000          (X_U12.x_lm741.13)    7.3200              

(X_U12.x_lm741.14)    7.2920          (X_U12.x_lm741.53)   11.0000              

(X_U12.x_lm741.54)    1.0000          (X_U12.x_lm741.90)  -40.6060              

(X_U12.x_lm741.91)   40.0000          (X_U12.x_lm741.92)  -40.0000              

(X_U12.x_lm741.99)    6.0000          (X_U13.x_lm741.10)    8.9673              

(X_U13.x_lm741.11)   11.9190          (X_U13.x_lm741.12)   12.0000              

(X_U13.x_lm741.13)    8.9956          (X_U13.x_lm741.14)    8.9673              

(X_U13.x_lm741.53)   11.0000          (X_U13.x_lm741.54)    1.0000              

(X_U13.x_lm741.90)  -40.6060          (X_U13.x_lm741.91)   40.0000              

(X_U13.x_lm741.92)  -40.0000          (X_U13.x_lm741.99)    6.0000          




    VOLTAGE SOURCE CURRENTS
    NAME         CURRENT

    V_V1         4.401E-02
    V_V2         4.010E-03
    X_U4.x_lm741.vb  -6.185E-09
    X_U4.x_lm741.vc   4.495E-12
    X_U4.x_lm741.ve   1.901E-11
    X_U4.x_lm741.vlim   3.755E-04
    X_U4.x_lm741.vlp  -3.963E-11
    X_U4.x_lm741.vln  -4.038E-11
[...]

(X_U10.x_lm741.10)    8.2253          (X_U10.x_lm741.11)   12.0000              

(X_U10.x_lm741.12)   11.9200          (X_U10.x_lm741.13)    8.2253              

(X_U10.x_lm741.14)    8.2534          (X_U10.x_lm741.53)   11.0000              

(X_U10.x_lm741.54)    1.0000          (X_U10.x_lm741.90)   40.6100              

(X_U10.x_lm741.91)   40.0000          (X_U10.x_lm741.92)  -40.0000              

(X_U10.x_lm741.99)    6.0000          (X_U11.x_lm741.10)    8.2253              

(X_U11.x_lm741.11)   12.0000          (X_U11.x_lm741.12)   11.9200              

(X_U11.x_lm741.13)    8.2253          (X_U11.x_lm741.14)    8.2534              

(X_U11.x_lm741.53)   11.0000          (X_U11.x_lm741.54)    1.0000              

(X_U11.x_lm741.90)   40.6100          (X_U11.x_lm741.91)   40.0000              

(X_U11.x_lm741.92)  -40.0000          (X_U11.x_lm741.99)    6.0000              

(X_U12.x_lm741.10)    8.2253          (X_U12.x_lm741.11)   12.0000              

(X_U12.x_lm741.12)   11.9200          (X_U12.x_lm741.13)    8.2253              

(X_U12.x_lm741.14)    8.2534          (X_U12.x_lm741.53)   11.0000              

(X_U12.x_lm741.54)    1.0000          (X_U12.x_lm741.90)   40.6100              

(X_U12.x_lm741.91)   40.0000          (X_U12.x_lm741.92)  -40.0000              

(X_U12.x_lm741.99)    6.0000          (X_U13.x_lm741.10)    8.9673              

(X_U13.x_lm741.11)   11.9190          (X_U13.x_lm741.12)   12.0000              

(X_U13.x_lm741.13)    8.9956          (X_U13.x_lm741.14)    8.9673              

(X_U13.x_lm741.53)   11.0000          (X_U13.x_lm741.54)    1.0000              

(X_U13.x_lm741.90)  -40.6060          (X_U13.x_lm741.91)   40.0000              

(X_U13.x_lm741.92)  -40.0000          (X_U13.x_lm741.99)    6.0000          




    VOLTAGE SOURCE CURRENTS
    NAME         CURRENT

    V_V1         6.420E-02
    V_V2         4.010E-03
    X_U4.x_lm741.vb  -8.437E-09
    X_U4.x_lm741.vc   2.135E-12
    X_U4.x_lm741.ve   2.137E-11
    X_U4.x_lm741.vlim   5.644E-04
    X_U4.x_lm741.vlp  -3.944E-11
    X_U4.x_lm741.vln  -4.057E-11
    X_U7.x_lm741.vb  -2.470E-09
    X_U7.x_lm741.vc   8.412E-12
    X_U7.x_lm741.ve   1.510E-11
    X_U7.x_lm741.vlim   2.073E-04
    X_U7.x_lm741.vlp  -3.979E-11
    X_U7.x_lm741.vln  -4.021E-11
    X_U8.x_lm741.vb  -1.633E-09
    X_U8.x_lm741.vc   9.183E-12
    X_U8.x_lm741.ve   1.432E-11
    X_U8.x_lm741.vlim  -5.636E-04
    X_U8.x_lm741.vlp  -4.056E-11
    X_U8.x_lm741.vln  -3.944E-11
    X_U9.x_lm741.vb  -1.515E-05
    X_U9.x_lm741.vc  -1.962E-02
    X_U9.x_lm741.ve   1.066E-11
    X_U9.x_lm741.vlim   4.061E-02
    X_U9.x_lm741.vlp   1.410E-05
    X_U9.x_lm741.vln  -8.061E-11
    X_U10.x_lm741.vb  -1.515E-05
    X_U10.x_lm741.vc  -1.844E-02
    X_U10.x_lm741.ve   1.066E-11
    X_U10.x_lm741.vlim   4.061E-02
    X_U10.x_lm741.vlp   1.422E-05
    X_U10.x_lm741.vln  -8.061E-11
    X_U11.x_lm741.vb  -1.515E-05
    X_U11.x_lm741.vc  -2.039E-02
    X_U11.x_lm741.ve   1.066E-11
    X_U11.x_lm741.vlim   4.061E-02
    X_U11.x_lm741.vlp   1.403E-05
    X_U11.x_lm741.vln  -8.061E-11
    X_U12.x_lm741.vb  -1.515E-05
    X_U12.x_lm741.vc  -2.019E-02
    X_U12.x_lm741.ve   1.066E-11
    X_U12.x_lm741.vlim   4.061E-02
    X_U12.x_lm741.vlp   1.405E-05
    X_U12.x_lm741.vln  -8.061E-11
    X_U13.x_lm741.vb   1.524E-05
    X_U13.x_lm741.vc   1.082E-11
    X_U13.x_lm741.ve  -4.061E-02
    X_U13.x_lm741.vlim  -4.061E-02
    X_U13.x_lm741.vlp  -8.061E-11
    X_U13.x_lm741.vln   1.210E-05

    TOTAL POWER DISSIPATION  -6.06E-01  WATTS


**** 05/14/22 23:53:09 ******* PSpice 17.4.0 (Nov 2018) ******* ID# 0 ********

 ** Profile: "SCHEMATIC1-sim_tranzitoriu"  [ c:\cadence\lascuanamaria_orcad\proiect_cad-PSpiceFiles\SCHEMATIC1\sim_tranzitoriu.sim ] 


 ****     INITIAL TRANSIENT SOLUTION       TEMPERATURE =   27.000 DEG C

 ****     CURRENT STEP                     PARAM SENZOR =   39.0000E+03


******************************************************************************



 NODE   VOLTAGE     NODE   VOLTAGE     NODE   VOLTAGE     NODE   VOLTAGE


(  OUT)    2.6274  (  REF)    1.8181  ( +VCC)   12.0000  ( -VCC)  -12.0000      

( OUT1)    9.3056  (N00083)    2.6274 (N11289)    2.4170 (N11463)    2.4171     

(N11846)    1.8181 (N13042)    2.4407 (N13228)   11.7970 (N13284)    3.4006     

(N13710)   11.7960 (N13714)    2.9279 (N13754)    2.5316 (N14081)   11.7980     

(N14085)    1.6865 (N14125)    5.8537 (N14458)   11.7980 (N14462)    1.9949     

(N14502)    7.9322 (N14841)     .1837 (N14845)     .1837 (N14885)    9.6077     

(X_U4.x_lm741.6)-885.7E-06            (X_U4.x_lm741.7)    9.3356                

(X_U4.x_lm741.8)    9.3356            (X_U4.x_lm741.9)    0.0000                

(X_U7.x_lm741.6)-250.6E-06            (X_U7.x_lm741.7)    2.6379                

(X_U7.x_lm741.8)    2.6379            (X_U7.x_lm741.9)    0.0000                

(X_U8.x_lm741.6)-162.8E-06            (X_U8.x_lm741.7)    1.7881                

(X_U8.x_lm741.8)    1.7881            (X_U8.x_lm741.9)    0.0000                

(X_U9.x_lm741.6)   -1.5184            (X_U9.x_lm741.7)   13.8280                

(X_U9.x_lm741.8)   13.8280            (X_U9.x_lm741.9)    0.0000                

(X_U10.x_lm741.6)   -1.5184           (X_U10.x_lm741.7)   13.8260               

(X_U10.x_lm741.8)   13.8260           (X_U10.x_lm741.9)    0.0000               

(X_U11.x_lm741.6)   -1.5184           (X_U11.x_lm741.7)   13.8290               

(X_U11.x_lm741.8)   13.8290           (X_U11.x_lm741.9)    0.0000               

(X_U12.x_lm741.6)   -1.5184           (X_U12.x_lm741.7)   13.8290               

(X_U12.x_lm741.8)   13.8290           (X_U12.x_lm741.9)    0.0000               

(X_U13.x_lm741.6)    1.5239           (X_U13.x_lm741.7)   -1.8466               

(X_U13.x_lm741.8)   -1.8466           (X_U13.x_lm741.9)    0.0000               

(X_U4.x_lm741.10)    1.8089           (X_U4.x_lm741.11)   11.9600               

(X_U4.x_lm741.12)   11.9600           (X_U4.x_lm741.13)    1.8229               

(X_U4.x_lm741.14)    1.8230           (X_U4.x_lm741.53)   11.0000               

(X_U4.x_lm741.54)  -11.0000           (X_U4.x_lm741.90)     .5997               

(X_U4.x_lm741.91)   40.0000           (X_U4.x_lm741.92)  -40.0000               

(X_U4.x_lm741.99)    0.0000           (X_U7.x_lm741.10)    2.0192               

(X_U7.x_lm741.11)   11.9600           (X_U7.x_lm741.12)   11.9600               

(X_U7.x_lm741.13)    2.0333           (X_U7.x_lm741.14)    2.0333               

(X_U7.x_lm741.53)   11.0000           (X_U7.x_lm741.54)  -11.0000               

(X_U7.x_lm741.90)     .2103           (X_U7.x_lm741.91)   40.0000               

(X_U7.x_lm741.92)  -40.0000           (X_U7.x_lm741.99)    0.0000               

(X_U8.x_lm741.10)    1.2101           (X_U8.x_lm741.11)   11.9600               

(X_U8.x_lm741.12)   11.9600           (X_U8.x_lm741.13)    1.2241               

(X_U8.x_lm741.14)    1.2241           (X_U8.x_lm741.53)   11.0000               

(X_U8.x_lm741.54)  -11.0000           (X_U8.x_lm741.90)    -.5989               

(X_U8.x_lm741.91)   40.0000           (X_U8.x_lm741.92)  -40.0000               

(X_U8.x_lm741.99)    0.0000           (X_U9.x_lm741.10)    8.6653               

(X_U9.x_lm741.11)   12.0000           (X_U9.x_lm741.12)   11.9190               

(X_U9.x_lm741.13)    8.6653           (X_U9.x_lm741.14)    8.6935               

(X_U9.x_lm741.53)   11.0000           (X_U9.x_lm741.54)    1.0000               

(X_U9.x_lm741.90)   40.6100           (X_U9.x_lm741.91)   40.0000               

(X_U9.x_lm741.92)  -40.0000           (X_U9.x_lm741.99)    6.0000               

(X_U10.x_lm741.10)    8.6653          (X_U10.x_lm741.11)   12.0000              

(X_U10.x_lm741.12)   11.9190          (X_U10.x_lm741.13)    8.6653              

(X_U10.x_lm741.14)    8.6935          (X_U10.x_lm741.53)   11.0000              

(X_U10.x_lm741.54)    1.0000          (X_U10.x_lm741.90)   40.6110              

(X_U10.x_lm741.91)   40.0000          (X_U10.x_lm741.92)  -40.0000              

(X_U10.x_lm741.99)    6.0000          (X_U11.x_lm741.10)    8.6653              

(X_U11.x_lm741.11)   12.0000          (X_U11.x_lm741.12)   11.9190              

(X_U11.x_lm741.13)    8.6653          (X_U11.x_lm741.14)    8.6935              

(X_U11.x_lm741.53)   11.0000          (X_U11.x_lm741.54)    1.0000              

(X_U11.x_lm741.90)   40.6100          (X_U11.x_lm741.91)   40.0000              

(X_U11.x_lm741.92)  -40.0000          (X_U11.x_lm741.99)    6.0000              

(X_U12.x_lm741.10)    8.6653          (X_U12.x_lm741.11)   12.0000              

(X_U12.x_lm741.12)   11.9190          (X_U12.x_lm741.13)    8.6653              

(X_U12.x_lm741.14)    8.6935          (X_U12.x_lm741.53)   11.0000              

(X_U12.x_lm741.54)    1.0000          (X_U12.x_lm741.90)   40.6100              

(X_U12.x_lm741.91)   40.0000          (X_U12.x_lm741.92)  -40.0000              

(X_U12.x_lm741.99)    6.0000          (X_U13.x_lm741.10)    8.9673              

(X_U13.x_lm741.11)   11.9190          (X_U13.x_lm741.12)   12.0000              

(X_U13.x_lm741.13)    8.9956          (X_U13.x_lm741.14)    8.9673              

(X_U13.x_lm741.53)   11.0000          (X_U13.x_lm741.54)    1.0000              

(X_U13.x_lm741.90)  -40.6060          (X_U13.x_lm741.91)   40.0000              

(X_U13.x_lm741.92)  -40.0000          (X_U13.x_lm741.99)    6.0000          




    VOLTAGE SOURCE CURRENTS
    NAME         CURRENT

    V_V1         6.420E-02
    V_V2         4.010E-03
    X_U4.x_lm741.vb  -8.857E-09
    X_U4.x_lm741.vc   1.695E-12
    X_U4.x_lm741.ve   2.181E-11
    X_U4.x_lm741.vlim   5.997E-04
    X_U4.x_lm741.vlp  -3.940E-11
    X_U4.x_lm741.vln  -4.060E-11
    X_U7.x_lm741.vb  -2.506E-09
    X_U7.x_lm741.vc   8.373E-12
    X_U7.x_lm741.ve   1.513E-11
    X_U7.x_lm741.vlim   2.103E-04
    X_U7.x_lm741.vlp  -3.979E-11
    X_U7.x_lm741.vln  -4.021E-11
    X_U8.x_lm741.vb  -1.628E-09
    X_U8.x_lm741.vc   9.183E-12
    X_U8.x_lm741.ve   1.432E-11
    X_U8.x_lm741.vlim  -5.989E-04
    X_U8.x_lm741.vlp  -4.060E-11
    X_U8.x_lm741.vln  -3.940E-11
    X_U9.x_lm741.vb  -1.518E-05
    X_U9.x_lm741.vc  -1.962E-02
    X_U9.x_lm741.ve   1.066E-11
    X_U9.x_lm741.vlim   4.061E-02
    X_U9.x_lm741.vlp   1.414E-05
    X_U9.x_lm741.vln  -8.061E-11
    X_U10.x_lm741.vb  -1.518E-05
    X_U10.x_lm741.vc  -1.844E-02
    X_U10.x_lm741.ve   1.066E-11
    X_U10.x_lm741.vlim   4.061E-02
    X_U10.x_lm741.vlp   1.425E-05
    X_U10.x_lm741.vln  -8.061E-11
    X_U11.x_lm741.vb  -1.518E-05
    X_U11.x_lm741.vc  -2.039E-02
    X_U11.x_lm741.ve   1.066E-11
    X_U11.x_lm741.vlim   4.061E-02
    X_U11.x_lm741.vlp   1.406E-05
    X_U11.x_lm741.vln  -8.061E-11
    X_U12.x_lm741.vb  -1.518E-05
    X_U12.x_lm741.vc  -2.019E-02
    X_U12.x_lm741.ve   1.066E-11
    X_U12.x_lm741.vlim   4.061E-02
    X_U12.x_lm741.vlp   1.408E-05
    X_U12.x_lm741.vln  -8.061E-11
    X_U13.x_lm741.vb   1.524E-05
    X_U13.x_lm741.vc   1.082E-11
    X_U13.x_lm741.ve  -4.061E-02
    X_U13.x_lm741.vlim  -4.061E-02
    X_U13.x_lm741.vlp  -8.061E-11
    X_U13.x_lm741.vln   1.210E-05

    TOTAL POWER DISSIPATION  -6.06E-01  WATTS


**** 05/14/22 23:53:09 ******* PSpice 17.4.0 (Nov 2018) ******* ID# 0 ********

 ** Profile: "SCHEMATIC1-sim_tranzitoriu"  [ c:\cadence\lascuanamaria_orcad\proiect_cad-PSpiceFiles\SCHEMATIC1\sim_tranzitoriu.sim ] 


 ****     INITIAL TRANSIENT SOLUTION       TEMPERATURE =   27.000 DEG C

 ****     CURRENT STEP                     PARAM SENZOR =   40.0000E+03


******************************************************************************



 NODE   VOLTAGE     NODE   VOLTAGE     NODE   VOLTAGE     NODE   VOLTAGE


(  OUT)    2.6648  (  REF)    1.8181  ( +VCC)   12.0000  ( -VCC)  -12.0000      

( OUT1)    9.7360  (N00083)    2.6649 (N11289)    2.4514 (N11463)    2.4515     

(N11846)    1.8181 (N13042)    2.4407 (N13228)   11.7970 (N13284)    3.4006     

(N13710)   11.7960 (N13714)    2.9279 (N13754)    2.5316 (N14081)   11.7980     

(N14085)    1.6865 (N14125)    5.8537 (N14458)   11.7980 (N14462)    1.9949     

(N14502)    7.9322 (N14841)   11.8030 (N14845)    7.0108 (N14885)    9.6091     

(X_U4.x_lm741.6)-926.7E-06            (X_U4.x_lm741.7)    9.7677                

(X_U4.x_lm741.8)    9.7677            (X_U4.x_lm741.9)    0.0000                

(X_U7.x_lm741.6)-254.2E-06            (X_U7.x_lm741.7)    2.6755                

(X_U7.x_lm741.8)    2.6755            (X_U7.x_lm741.9)    0.0000                

(X_U8.x_lm741.6)-162.3E-06            (X_U8.x_lm741.7)    1.7864                

(X_U8.x_lm741.8)    1.7864            (X_U8.x_lm741.9)    0.0000                

(X_U9.x_lm741.6)   -1.5214            (X_U9.x_lm741.7)   13.8280                

(X_U9.x_lm741.8)   13.8280            (X_U9.x_lm741.9)    0.0000                

(X_U10.x_lm741.6)   -1.5214           (X_U10.x_lm741.7)   13.8260               

(X_U10.x_lm741.8)   13.8260           (X_U10.x_lm741.9)    0.0000               

(X_U11.x_lm741.6)   -1.5214           (X_U11.x_lm741.7)   13.8290               

(X_U11.x_lm741.8)   13.8290           (X_U11.x_lm741.9)    0.0000               

(X_U12.x_lm741.6)   -1.5214           (X_U12.x_lm741.7)   13.8290               

(X_U12.x_lm741.8)   13.8290           (X_U12.x_lm741.9)    0.0000               

(X_U13.x_lm741.6)   -1.4585           (X_U13.x_lm741.7)   13.8340               

(X_U13.x_lm741.8)   13.8340           (X_U13.x_lm741.9)    0.0000               

(X_U4.x_lm741.10)    1.8433           (X_U4.x_lm741.11)   11.9600               

(X_U4.x_lm741.12)   11.9600           (X_U4.x_lm741.13)    1.8573               

(X_U4.x_lm741.14)    1.8574           (X_U4.x_lm741.53)   11.0000               

(X_U4.x_lm741.54)  -11.0000           (X_U4.x_lm741.90)     .6343               

(X_U4.x_lm741.91)   40.0000           (X_U4.x_lm741.92)  -40.0000               

(X_U4.x_lm741.99)    0.0000           (X_U7.x_lm741.10)    2.0566               

(X_U7.x_lm741.11)   11.9600           (X_U7.x_lm741.12)   11.9600               

(X_U7.x_lm741.13)    2.0707           (X_U7.x_lm741.14)    2.0707               

(X_U7.x_lm741.53)   11.0000           (X_U7.x_lm741.54)  -11.0000               

(X_U7.x_lm741.90)     .2133           (X_U7.x_lm741.91)   40.0000               

(X_U7.x_lm741.92)  -40.0000           (X_U7.x_lm741.99)    0.0000               

(X_U8.x_lm741.10)    1.2101           (X_U8.x_lm741.11)   11.9600               

(X_U8.x_lm741.12)   11.9600           (X_U8.x_lm741.13)    1.2241               

(X_U8.x_lm741.14)    1.2241           (X_U8.x_lm741.53)   11.0000               

(X_U8.x_lm741.54)  -11.0000           (X_U8.x_lm741.90)    -.6333               

(X_U8.x_lm741.91)   40.0000           (X_U8.x_lm741.92)  -40.0000               

(X_U8.x_lm741.99)    0.0000           (X_U9.x_lm741.10)    9.0955               

(X_U9.x_lm741.11)   12.0000           (X_U9.x_lm741.12)   11.9190               

(X_U9.x_lm741.13)    9.0955           (X_U9.x_lm741.14)    9.1238               

(X_U9.x_lm741.53)   11.0000           (X_U9.x_lm741.54)    1.0000               

(X_U9.x_lm741.90)   40.6100           (X_U9.x_lm741.91)   40.0000               

(X_U9.x_lm741.92)  -40.0000           (X_U9.x_lm741.99)    6.0000               

(X_U10.x_lm741.10)    9.0955          (X_U10.x_lm741.11)   12.0000              

(X_U10.x_lm741.12)   11.9190          (X_U10.x_lm741.13)    9.0955              

(X_U10.x_lm741.14)    9.1238          (X_U10.x_lm741.53)   11.0000              

(X_U10.x_lm741.54)    1.0000          (X_U10.x_lm741.90)   40.6110              

(X_U10.x_lm741.91)   40.0000          (X_U10.x_lm741.92)  -40.0000              

(X_U10.x_lm741.99)    6.0000          (X_U11.x_lm741.10)    9.0955              

(X_U11.x_lm741.11)   12.0000          (X_U11.x_lm741.12)   11.9190              

(X_U11.x_lm741.13)    9.0955          (X_U11.x_lm741.14)    9.1238              

(X_U11.x_lm741.53)   11.0000          (X_U11.x_lm741.54)    1.0000              

(X_U11.x_lm741.90)   40.6100          (X_U11.x_lm741.91)   40.0000              

(X_U11.x_lm741.92)  -40.0000          (X_U11.x_lm741.99)    6.0000              

(X_U12.x_lm741.10)    9.0955          (X_U12.x_lm741.11)   12.0000              

(X_U12.x_lm741.12)   11.9190          (X_U12.x_lm741.13)    9.0955              

(X_U12.x_lm741.14)    9.1238          (X_U12.x_lm741.53)   11.0000              

(X_U12.x_lm741.54)    1.0000          (X_U12.x_lm741.90)   40.6100              

(X_U12.x_lm741.91)   40.0000          (X_U12.x_lm741.92)  -40.0000              

(X_U12.x_lm741.99)    6.0000          (X_U13.x_lm741.10)    9.0966              

(X_U13.x_lm741.11)   11.9980          (X_U13.x_lm741.12)   11.9210              

(X_U13.x_lm741.13)    9.0972          (X_U13.x_lm741.14)    9.1243              

(X_U13.x_lm741.53)   11.0000          (X_U13.x_lm741.54)    1.0000              

(X_U13.x_lm741.90)   40.6080          (X_U13.x_lm741.91)   40.0000              

(X_U13.x_lm741.92)  -40.0000          (X_U13.x_lm741.99)    6.0000          




    VOLTAGE SOURCE CURRENTS
    NAME         CURRENT

    V_V1         8.883E-02
    V_V2         4.010E-03
    X_U4.x_lm741.vb  -9.267E-09
    X_U4.x_lm741.vc   1.265E-12
    X_U4.x_lm741.ve   2.224E-11
    X_U4.x_lm741.vlim   6.343E-04
    X_U4.x_lm741.vlp  -3.937E-11
    X_U4.x_lm741.vln  -4.064E-11
    X_U7.x_lm741.vb  -2.542E-09
    X_U7.x_lm741.vc   8.336E-12
    X_U7.x_lm741.ve   1.517E-11
    X_U7.x_lm741.vlim   2.133E-04
    X_U7.x_lm741.vlp  -3.979E-11
    X_U7.x_lm741.vln  -4.022E-11
    X_U8.x_lm741.vb  -1.623E-09
    X_U8.x_lm741.vc   9.183E-12
    X_U8.x_lm741.ve   1.432E-11
    X_U8.x_lm741.vlim  -6.333E-04
    X_U8.x_lm741.vlp  -4.063E-11
    X_U8.x_lm741.vln  -3.937E-11
    X_U9.x_lm741.vb  -1.521E-05
    X_U9.x_lm741.vc  -1.962E-02
    X_U9.x_lm741.ve   1.066E-11
    X_U9.x_lm741.vlim   4.061E-02
    X_U9.x_lm741.vlp   1.417E-05
    X_U9.x_lm741.vln  -8.061E-11
    X_U10.x_lm741.vb  -1.521E-05
    X_U10.x_lm741.vc  -1.844E-02
    X_U10.x_lm741.ve   1.066E-11
    X_U10.x_lm741.vlim   4.061E-02
    X_U10.x_lm741.vlp   1.429E-05
    X_U10.x_lm741.vln  -8.061E-11
    X_U11.x_lm741.vb  -1.521E-05
    X_U11.x_lm741.vc  -2.039E-02
    X_U11.x_lm741.ve   1.066E-11
    X_U11.x_lm741.vlim   4.061E-02
    X_U11.x_lm741.vlp   1.409E-05
    X_U11.x_lm741.vln  -8.061E-11
    X_U12.x_lm741.vb  -1.521E-05
    X_U12.x_lm741.vc  -2.019E-02
    X_U12.x_lm741.ve   1.066E-11
    X_U12.x_lm741.vlim   4.061E-02
    X_U12.x_lm741.vlp   1.411E-05
    X_U12.x_lm741.vln  -8.061E-11
    X_U13.x_lm741.vb  -1.458E-05
    X_U13.x_lm741.vc  -2.463E-02
    X_U13.x_lm741.ve   1.067E-11
    X_U13.x_lm741.vlim   4.061E-02
    X_U13.x_lm741.vlp   1.300E-05
    X_U13.x_lm741.vln  -8.061E-11

    TOTAL POWER DISSIPATION  -9.17E-01  WATTS



          JOB CONCLUDED

**** 05/14/22 23:53:09 ******* PSpice 17.4.0 (Nov 2018) ******* ID# 0 ********

 ** Profile: "SCHEMATIC1-sim_tranzitoriu"  [ c:\cadence\lascuanamaria_orcad\proiect_cad-PSpiceFiles\SCHEMATIC1\sim_tranzitoriu.sim ] 


 ****     JOB STATISTICS SUMMARY

 ****     CURRENT STEP                     PARAM SENZOR =   40.0000E+03


******************************************************************************



  License check-out time            =       25.08
  Total job time (using Solver 1)   =        2.09
